***************************************************************************************
*   This model is a pre-release version.                                              *
*   TSMC Manufacture only supports the formally released SPICE models.                *
*   TSMC reserves the rights to make changes/modifications without written            *
*   notice. Using pre-release SPICE model is at user's risk.                          *
***************************************************************************************
*  **********************************************
*  *             TSMC SPICE MODEL               *
*  **********************************************
*
*    PROCESS :  80nm LOGIC SALICIDE (1P9M, 1.05V/1.8V) (CLN80HS)
*    MODEL   :  BSIM4 ( V4.4 )
*    DOC. NO.:  
*    VERSION :  V0.1p2
*    DATE    :  Mar. 25th, 2005
*    HSPICE VERSION : H2004.09
*
********************************************************************************
******************************************************************************
*                                                                            *
*       THIS MODEL LIB CONTAINS :                                            *
*                                                                            *
*       1.LIB TT                                                             *
*             SS                                                             *
*             FF                                                             *
*             SF                                                             *
*             FS                                                             *
*   ( 1.05V Standard-Vt devices with different geometric and corner models)  *
*                                                                            *
*       2.LIB TT_hvt                                                         *
*             SS_hvt                                                         *
*             FF_hvt                                                         *
*             SF_hvt                                                         *
*             FS_hvt                                                         *
*   ( 1.05V High-Vt devices with different geometric and corner models)      *
*                                                                            *
*       3.LIB TT_18                                                          *
*             SS_18                                                          *
*             FF_18                                                          *
*             SF_18                                                          *
*             FS_18                                                          *
*   ( 1.8V devices with different geometric and corner models)               *
*                                                                            *
*       4.LIB TT_BIP                                                         *
*             SS_BIP                                                         *
*             FF_BIP                                                         *
*        ( 1.05V P+/NW/PSUB 10x10, 5x5, and 2x2 vertical PNP bipolar )       *
*                                                                            *
*                                                                            *
*       5.LIB TT_DIO                                                         *
*             SS_DIO                                                         *
*             FF_DIO                                                         *
*        ( 1.05V Standard-Vt P+/NW, N+/PW, and NW/PSUB diode )               *
*                                                                            *
*       6.LIB TT_DIO_hvt                                                     *
*             SS_DIO_hvt                                                     *
*             FF_DIO_hvt                                                     *
*        ( 1.05V High-Vt P+/NW, and N+/PW diode )                             *
*                                                                            *
*       7.LIB TT_DIO_18                                                      *
*             SS_DIO_18                                                      *
*             FF_DIO_18                                                      *
*        ( 1.8V P+/NW, and N+/PW diode )                                     *
*                                                                            *
*       8.LIB TT_MOS_CAP_18                                                  *
*             SS_MOS_CAP_18                                                  *
*             FF_MOS_CAP_18                                                  *
*        ( 1.8V IO NMOS in N-Well varactor )                                 *
*                                                                            *
*       9.LIB RES                                                            *
*        ( resistance )                                                      *
*                                                                            *
*                                                                            *
******************************************************************************
*****************************************************************************************
*                                                                                       *
* 1) To use these models directly by programming in this style:                         *
*                                                                                       *
*     .lib 'lib_path/lib_name' model_name                                               *
*                                                                                       *
*    EX: .lib '/home/user/tsmc/LOGIC/cln80hs_lk_v0d1p2.l' TT                                   *
*        for typical 1.05V Standard Vt N,PMOS                                           *
*    note:                                                                              *
*      corner_name                                                                      *
*       TT : typical model for 1.05V standard-Vt devices                                *
*       SS : Slow NMOS Slow PMOS model for 1.05V standard-Vt devices                    *
*       FF : Fast NMOS Fast PMOS model for 1.05V standard-Vt devices                    *
*       SF : Slow NMOS Fast PMOS model for 1.05V standard-Vt devices                    *
*       FS : Fast NMOS Slow PMOS model for 1.05V standard-Vt devices                    *
*      corner_name                                                                      *
*       TT_hvt : typical model for 1.2V High-Vt devices                                 *
*       SS_hvt : Slow NMOS Slow PMOS model for 1.05V high-Vt devices                     *
*       FF_hvt : Fast NMOS Fast PMOS model for 1.05V high-Vt devices                     *
*       SF_hvt : Slow NMOS Fast PMOS model for 1.05V high-Vt devices                     *
*       FS_hvt : Fast NMOS Slow PMOS model for 1.05V high-Vt devices                     *
*      corner_name                                                                      *
*       TT_18 : typical model for 1.8V devices                                          *
*       SS_18 : Slow NMOS Slow PMOS model for 1.8V devices                              *
*       FF_18 : Fast NMOS Fast PMOS model for 1.8V devices                              *
*       SF_18 : Slow NMOS Fast PMOS model for 1.8V devices                              *
*       FS_18 : Fast NMOS Slow PMOS model for 1.8V devices                              *
* 2) DMCG depends on your layout poly spacer to contact center distance.                *
*    The value listed here is TSMC minimum-rule value. You can change it                *
*    according to your layout.                                                          *
*                                                                                       *
*****************************************************************************************
* NOTE:
* 1. If the layouts are 90% shrunk from CLN90, please put "SCALE=0.9" in the netlists for pre-sim.
*    And for the post sim, LPE tools should take care of the 0.9 scaling.
* 2. LPE needs to extact Rg ,poly-to-contact and poly end cap capacitance for the netlists of real layouts.
*
********************************************************************************
*
*
************************    FLAG FOR CONTACT-POLY CAPACITANCE    ******************************
*
* NOTE: 
*  1. The default value of ccoflag is 0, which means that the model will exclude contact-to-poly
*     capacitance.  LPE tools should extract this capacitance during post-layout simulation.
*  2. Users could set ccoflag to 1 for pre-layout simulation where contact-to-poly capacitance
*     with maximum contact density is required.
*
***********************************************************************************************
*.LIB CCO_pre_simu
*.param ccoflag=0
*.ENDL CCO_pre_simu

*.LIB CCO_pre_simu_hvt
*.param ccoflag_hvt=0
*.ENDL CCO_pre_simu_hvt

*.LIB CCO_pre_simu_18
*.param ccoflag_18=0
*.ENDL CCO_pre_simu_18

***************************************************************
*                                                             *
*               1.05V STANDARD VT DEVICE LIB                  *
*                                                             *
***************************************************************

******************************     LIBRARY OF TYPICAL CASE     *******************************
.LIB TT
.param
+ccoflag=0
+toxn           = 1.93E-09      dxw            = 0             dxl            = 0             
+cjn            = 9.170E-04     cjswn          = 9.000E-11     cjswgn         = 4.000E-10     
+cgon           = 2.643E-11     cgln           = 1.338E-10     dvthn          = 0             
+dlvthn         = 0             dwvthn         = 0             dpvthn         = 0             
+ddlcn          = 8.953E-09     ntoxn          = 1             cfn            = '1.460E-10 + 2.8e-11*ccoflag' 
+dlvoffn        = 0             dwvoffn        = 0             deta0n         = 0             
+dweta0n        = 0             dlvsatn        = 0             dpvsatn        = 0             
+toxp           = 2.13E-09      
+cjp            = 9.57E-04      cjswp          = 7.1E-11       cjswgp         = 3.1E-10       
+cgop           = 3.489E-12     cglp           = 1.142E-10     dvthp          = 0             
+dlvthp         = 0             dwvthp         = 0             dpvthp         = 0             
+du0p           = 0             dlu0p          = 0             dlvsatp        = 0             
+dpvsatp        = 0             dvoffp         = 0             dlvoffp        = 0             
+dpvoffp        = 0             dleta0p        = 0             dweta0p        = 0             
+dpeta0p        = 0             dlk2p          = 0             dlkt1p         = 0             
+dpkt1p         = 0             dlatp          = 0             dpatp          = 0             
+ddlcp          = 6.667E-09     ntoxp          = 1             cfp            = '1.46E-10 + 2.8e-11*ccoflag' 
.lib 'models.sp' MOS
.lib 'models.sp' TT_DIO
.ENDL TT

******************************   LIBRARY OF SNSP CORNER CASE   *******************************
.LIB SS
.param
+ccoflag=0
+toxn           = 1.99E-09      dxw            = -7.20E-09     dxl            = 5.00E-09      
+cjn            = 9.812E-04     cjswn          = 9.630E-11     cjswgn         = 4.280E-10     
+cgon           = 2.458E-11     cgln           = 1.245E-10     dvthn          = 0.038         
+dlvthn         = 0.80E-9       dwvthn         = 1.00E-9       dpvthn         = 1.00E-16      
+ddlcn          = 8.953E-09     ntoxn          = 0.5           cfn            = '1.358E-10 + 2.8e-11*ccoflag' 
+dlvoffn        = 1e-10         dwvoffn        = 1e-10         deta0n         = -0.0          
+dweta0n        = 1e-9          dlvsatn        = 0             dpvsatn        = 1.5e-10       
+toxp           = 2.19E-09      
+cjp            = 1.024E-03     cjswp          = 7.597E-11     cjswgp         = 3.317E-10     
+cgop           = 3.245E-12     cglp           = 1.062E-10     dvthp          = -0.04         
+dlvthp         = -1.00E-10     dwvthp         = -3.00e-10     dpvthp         = -2.20E-16     
+du0p           = 2.5           dlu0p          = 8.5e-8        dlvsatp        = 1.50e-03      
+dpvsatp        = 2.00e-10      dvoffp         = 0             dlvoffp        = 4e-10         
+dpvoffp        = -1.00E-16     dleta0p        = 5e-10         dweta0p        = -5e-09        
+dpeta0p        = 2e-16         dlk2p          = 9E-10         dlkt1p         = -1.5E-09      
+dpkt1p         = 0             dlatp          = 4.3e-3        dpatp          = 0             
+ddlcp          = 6.667E-09     ntoxp          = 0             cfp            = '1.3578E-10 + 2.8e-11*ccoflag' 
.lib 'models.sp' MOS
.lib 'models.sp' SS_DIO
.ENDL SS

******************************   LIBRARY OF FNFP CORNER CASE   *******************************
.LIB FF
.param
+ccoflag=0
+toxn           = 1.87E-09      dxw            = 7.20E-09      dxl            = -5.00E-09     
+cjn            = 8.528E-04     cjswn          = 8.370E-11     cjswgn         = 3.720E-10     
+cgon           = 2.828E-11     cgln           = 1.432E-10     dvthn          = -0.038        
+dlvthn         = -1.20E-09     dwvthn         = -2.00E-10     dpvthn         = -1.20E-16     
+ddlcn          = 8.953E-09     ntoxn          = 1.5           cfn            = '1.562E-10 + 2.8e-11*ccoflag' 
+dlvoffn        = 0.8e-9        dwvoffn        = -6e-9         deta0n         = 0.08          
+dweta0n        = 3.0e-9        dlvsatn        = -2e-4         dpvsatn        = -1.5e-10      
+toxp           = 2.07E-09      
+cjp            = 8.9E-04       cjswp          = 6.603E-11     cjswgp         = 2.883E-10     
+cgop           = 3.733E-12     cglp           = 1.222E-10     dvthp          = 0.035         
+dlvthp         = 5.0E-11       dwvthp         = 3.0E-10       dpvthp         = 2.20E-16      
+du0p           = 0             dlu0p          = 0             dlvsatp        = -1.65E-03     
+dpvsatp        = -5.6E-11      dvoffp         = -0.015        dlvoffp        = -0.0e-9       
+dpvoffp        = -1.0E-16      dleta0p        = 7.0E-9        dweta0p        = 6.0E-9        
+dpeta0p        = -7.0E-16      dlk2p          = -0.0E-11      dlkt1p         = 1.60E-09      
+dpkt1p         = -1.0E-16      dlatp          = -1.6E-03      dpatp          = 1.0E-10       
+ddlcp          = 6.667E-09     ntoxp          = 1.7           cfp            = '1.5622E-10 + 2.8e-11*ccoflag' 
.lib 'models.sp' MOS
.lib 'models.sp' FF_DIO
.ENDL FF

******************************   LIBRARY OF SNFP CORNER CASE   *******************************
.LIB SF
.param
+ccoflag=0
+toxn           = 1.93E-09      dxw            = 0             dxl            = 0             
+cjn            = 9.812E-04     cjswn          = 9.630E-11     cjswgn         = 4.280E-10     
+cgon           = 2.643E-11     cgln           = 1.338E-10     dvthn          = 0.032         
+dlvthn         = 0.60E-9       dwvthn         = 0.8e-9        dpvthn         = 0.80E-16      
+ddlcn          = 8.953E-09     ntoxn          = 1             cfn            = '1.460E-10 + 2.8e-11*ccoflag' 
+dlvoffn        = 1e-10         dwvoffn        = 1e-10         deta0n         = -0.00         
+dweta0n        = 1e-9          dlvsatn        = 0             dpvsatn        = 1.5e-10       
+toxp           = 2.13E-09      
+cjp            = 8.9E-04       cjswp          = 6.603E-11     cjswgp         = 2.883E-10     
+cgop           = 3.489E-12     cglp           = 1.142E-10     dvthp          = 0.035         
+dlvthp         = 4.00E-10      dwvthp         = 5.0E-10       dpvthp         = 2.40E-16      
+du0p           = -9E-1         dlu0p          = 0             dlvsatp        = -5.0E-04      
+dpvsatp        = -1.2E-11      dvoffp         = -0.015        dlvoffp        = -6.0e-10      
+dpvoffp        = -5.0E-16      dleta0p        = 4.0E-9        dweta0p        = 6.0E-9        
+dpeta0p        = -5.0E-16      dlk2p          = -1.6E-10      dlkt1p         = 3.00E-09      
+dpkt1p         = -1.0E-16      dlatp          = -2.4E-03      dpatp          = 1.0E-10       
+ddlcp          = 6.667E-09     ntoxp          = 1             cfp            = '1.46E-10 + 2.8e-11*ccoflag' 
.lib 'models.sp' MOS
.ENDL SF

******************************   LIBRARY OF FNSP CORNER CASE   *******************************
.LIB FS
.param
+ccoflag=0
+toxn           = 1.93E-09      dxw            = 0             dxl            = 0             
+cjn            = 8.528E-04     cjswn          = 8.370E-11     cjswgn         = 3.720E-10     
+cgon           = 2.643E-11     cgln           = 1.338E-10     dvthn          = -0.032        
+dlvthn         = -1.20E-09     dwvthn         = -1.80E-10     dpvthn         = -1.00E-16     
+ddlcn          = 8.953E-09     ntoxn          = 1             cfn            = '1.460E-10 + 2.8e-11*ccoflag' 
+dlvoffn        = 0.8e-9        dwvoffn        = -6e-9         deta0n         = 0.08          
+dweta0n        = 3.0e-9        dlvsatn        = -2e-4         dpvsatn        = -1.5e-10      
+toxp           = 2.13E-09      
+cjp            = 1.024E-03     cjswp          = 7.597E-11     cjswgp         = 3.317E-10     
+cgop           = 3.489E-12     cglp           = 1.142E-10     dvthp          = -0.04         
+dlvthp         = -4.00E-10     dwvthp         = -3.60e-10     dpvthp         = -2.00E-16     
+du0p           = 2.5           dlu0p          = -1E-07        dlvsatp        = 2.00e-04      
+dpvsatp        = 3.50e-10      dvoffp         = 0             dlvoffp        = 2.0e-10       
+dpvoffp        = -1.10E-16     dleta0p        = -4e-10        dweta0p        = 0             
+dpeta0p        = 5e-17         dlk2p          = 9E-10         dlkt1p         = 0             
+dpkt1p         = 0             dlatp          = 0             dpatp          = 0             
+ddlcp          = 6.667E-09     ntoxp          = 1             cfp            = '1.46E-10 + 2.8e-11*ccoflag' 
.lib 'models.sp' MOS
.ENDL FS

*
***************************************************************
*                                                             *
*               1.05V HIGH VT DEVICE LIB                      *
*                                                             *
***************************************************************
******************************    LIBRARY OF TYPICAL CASE    ******************************
.LIB TT_hvt
.param
+ccoflag_hvt=0
+toxn_hvt       = 1.93E-09      dxw_hvt        = 0             dxl_hvt        = 0             
+cjn_hvt        = 9.170E-04     cjswn_hvt      = 9.000E-11     cjswgn_hvt     = 4.300E-10     
+cgon_hvt       = 2.834E-11     cgln_hvt       = 1.203E-10     dvthn_hvt      = 0             
+dlvthn_hvt     = 0             dwvthn_hvt     = 0             dpvthn_hvt     = 0             
+ddlcn_hvt      = 8.241E-09     ntoxn_hvt      = 1             cfn_hvt        = '1.460E-10 + 2.8e-11*ccoflag_hvt' 
+dlvoffn_hvt    = 0             dwvoffn_hvt    = 0             deta0n_hvt     = 0             
+dweta0n_hvt    = 0             dlvsatn_hvt    = 0             dpvsatn_hvt    = 0             
+dlatn_hvt      = 0             dpatn_hvt      = 0             
+toxp_hvt       = 2.13E-09      
+cjp_hvt        = 9.57E-04      cjswp_hvt      = 7.1E-11       cjswgp_hvt     = 3.1E-10       
+cgop_hvt       = 6.974E-13     cglp_hvt       = 1.1085E-10    dvthp_hvt      = 0             
+dlvthp_hvt     = 0             dwvthp_hvt     = 0             dpvthp_hvt     = 0             
+drdswp_hvt     = 0             du0p_hvt       = 0             dpu0p_hvt      = 0             
+dlvsatp_hvt    = 0             dpvsatp_hvt    = 0             dppclmp_hvt    = 0             
+dpnfactorp_hvt = 0             dvoffp_hvt     = 0             dlvoffp_hvt    = 0             
+dpvoffp_hvt    = 0             dleta0p_hvt    = 0             dweta0p_hvt    = 0             
+dpa0p_hvt      = 0             dlk2p_hvt      = 0             dlkt1p_hvt     = 0             
+dpkt1p_hvt     = 0             dlatp_hvt      = 0             dpatp_hvt      = 0             
+ddlcp_hvt      = 6.0611E-09    ntoxp_hvt      = 1             cfp_hvt        = '1.46E-10 + 2.8e-11*ccoflag_hvt' 
.lib 'models.sp' MOS_hvt
.lib 'models.sp' TT_DIO_hvt
.ENDL TT_hvt

******************************   LIBRARY OF SNSP CORNER CASE   *******************************
.LIB SS_hvt
.param
+ccoflag_hvt=0
+toxn_hvt       = 1.99E-09      dxw_hvt        = -7.20E-09     dxl_hvt        = 5.00E-09      
+cjn_hvt        = 9.812E-04     cjswn_hvt      = 9.630E-11     cjswgn_hvt     = 4.601E-10     
+cgon_hvt       = 2.635E-11     cgln_hvt       = 1.119E-10     dvthn_hvt      = 0.036         
+dlvthn_hvt     = 0.70E-9       dwvthn_hvt     = 0.90E-9       dpvthn_hvt     = 1.00E-16      
+ddlcn_hvt      = 8.241E-09     ntoxn_hvt      = 0.5           cfn_hvt        = '1.358E-10 + 2.8e-11*ccoflag_hvt' 
+dlvoffn_hvt    = 1e-10         dwvoffn_hvt    = 1e-10         deta0n_hvt     = -0.0          
+dweta0n_hvt    = 1.4e-9        dlvsatn_hvt    = 0             dpvsatn_hvt    = 1.5e-10       
+dlatn_hvt      = 5e-4          dpatn_hvt      = 0             
+toxp_hvt       = 2.19E-09      
+cjp_hvt        = 1.024E-03     cjswp_hvt      = 7.597E-11     cjswgp_hvt     = 3.317E-10     
+cgop_hvt       = 6.486E-13     cglp_hvt       = 1.0309E-10    dvthp_hvt      = -0.04         
+dlvthp_hvt     = -2.00E-10     dwvthp_hvt     = -3.00e-10     dpvthp_hvt     = -2.20E-16     
+drdswp_hvt     = -40           du0p_hvt       = 1.5           dpu0p_hvt      = 0.8e-14       
+dlvsatp_hvt    = 2.40E-03      dpvsatp_hvt    = 3e-10         dppclmp_hvt    = 0             
+dpnfactorp_hvt = 0             dvoffp_hvt     = 0             dlvoffp_hvt    = -0.5e-9       
+dpvoffp_hvt    = -0.6E-16      dleta0p_hvt    = 2e-9          dweta0p_hvt    = 3e-9          
+dpa0p_hvt      = 0             dlk2p_hvt      = 9E-10         dlkt1p_hvt     = 0             
+dpkt1p_hvt     = 0             dlatp_hvt      = 8.0e-3        dpatp_hvt      = 1.5e-10       
+ddlcp_hvt      = 6.0611E-09    ntoxp_hvt      = 0             cfp_hvt        = '1.3578E-10 + 2.8e-11*ccoflag_hvt' 
.lib 'models.sp' MOS_hvt
.lib 'models.sp' SS_DIO_hvt
.ENDL SS_hvt

******************************   LIBRARY OF FNFP CORNER CASE   *******************************
.LIB FF_hvt
.param
+ccoflag_hvt=0
+toxn_hvt       = 1.87E-09      dxw_hvt        = 7.20E-09      dxl_hvt        = -5.00E-09     
+cjn_hvt        = 8.528E-04     cjswn_hvt      = 8.370E-11     cjswgn_hvt     = 3.999E-10     
+cgon_hvt       = 3.032E-11     cgln_hvt       = 1.287E-10     dvthn_hvt      = -0.038        
+dlvthn_hvt     = -1.25E-09     dwvthn_hvt     = -1.00E-9      dpvthn_hvt     = -0.40E-16     
+ddlcn_hvt      = 8.241E-09     ntoxn_hvt      = 1.5           cfn_hvt        = '1.562E-10 + 2.8e-11*ccoflag_hvt' 
+dlvoffn_hvt    = 0.3e-9        dwvoffn_hvt    = 0e-9          deta0n_hvt     = 0.07          
+dweta0n_hvt    = 7e-9          dlvsatn_hvt    = -4e-4         dpvsatn_hvt    = -1.0e-10      
+dlatn_hvt      = -1.8e-4       dpatn_hvt      = -9e-11        
+toxp_hvt       = 2.07E-09      
+cjp_hvt        = 8.9E-04       cjswp_hvt      = 6.603E-11     cjswgp_hvt     = 2.883E-10     
+cgop_hvt       = 7.462E-13     cglp_hvt       = 1.1861E-10    dvthp_hvt      = 0.035         
+dlvthp_hvt     = 2.0E-10       dwvthp_hvt     = 3.0E-10       dpvthp_hvt     = 2.40E-16      
+drdswp_hvt     = 30            du0p_hvt       = 0             dpu0p_hvt      = 0             
+dlvsatp_hvt    = -1.40E-03     dpvsatp_hvt    = -1.8e-10      dppclmp_hvt    = 5e-16         
+dpnfactorp_hvt = 0             dvoffp_hvt     = 0             dlvoffp_hvt    = -1.1e-9       
+dpvoffp_hvt    = 0.8E-16       dleta0p_hvt    = -1e-9         dweta0p_hvt    = -8e-9         
+dpa0p_hvt      = 0             dlk2p_hvt      = -8.0E-10      dlkt1p_hvt     = 0             
+dpkt1p_hvt     = 0.8E-16       dlatp_hvt      = -2.6E-03      dpatp_hvt      = -2.1E-10      
+ddlcp_hvt      = 6.0611E-09    ntoxp_hvt      = 1.7           cfp_hvt        = '1.5622E-10 + 2.8e-11*ccoflag_hvt' 
.lib 'models.sp' MOS_hvt
.lib 'models.sp' FF_DIO_hvt
.ENDL FF_hvt

******************************   LIBRARY OF SNFP CORNER CASE   *******************************
.LIB SF_hvt
.param
+ccoflag_hvt=0
+toxn_hvt       = 1.93E-09      dxw_hvt        = 0             dxl_hvt        = 0             
+cjn_hvt        = 9.812E-04     cjswn_hvt      = 9.630E-11     cjswgn_hvt     = 4.601E-10     
+cgon_hvt       = 2.834E-11     cgln_hvt       = 1.203E-10     dvthn_hvt      = 0.032         
+dlvthn_hvt     = 0.70E-9       dwvthn_hvt     = 0.90E-9       dpvthn_hvt     = 1.00E-16      
+ddlcn_hvt      = 8.241E-09     ntoxn_hvt      = 1             cfn_hvt        = '1.460E-10 + 2.8e-11*ccoflag_hvt' 
+dlvoffn_hvt    = 1e-10         dwvoffn_hvt    = 1e-10         deta0n_hvt     = -0.00         
+dweta0n_hvt    = 1.4e-9        dlvsatn_hvt    = 0             dpvsatn_hvt    = 1.5e-10       
+dlatn_hvt      = 5e-4          dpatn_hvt      = 0             
+toxp_hvt       = 2.13E-09      
+cjp_hvt        = 8.9E-04       cjswp_hvt      = 6.603E-11     cjswgp_hvt     = 2.883E-10     
+cgop_hvt       = 6.974E-13     cglp_hvt       = 1.1085E-10    dvthp_hvt      = 0.035         
+dlvthp_hvt     = 5.00E-10      dwvthp_hvt     = 3.0E-10       dpvthp_hvt     = 2.10E-16      
+drdswp_hvt     = 0             du0p_hvt       = 0             dpu0p_hvt      = 0             
+dlvsatp_hvt    = -0.40E-03     dpvsatp_hvt    = 0             dppclmp_hvt    = 0             
+dpnfactorp_hvt = 0             dvoffp_hvt     = 0             dlvoffp_hvt    = -1.1e-9       
+dpvoffp_hvt    = 0.8E-16       dleta0p_hvt    = -1e-9         dweta0p_hvt    = -8e-9         
+dpa0p_hvt      = 0             dlk2p_hvt      = -7.0E-10      dlkt1p_hvt     = 0             
+dpkt1p_hvt     = 0.8E-16       dlatp_hvt      = -2.6E-03      dpatp_hvt      = -2.1E-10      
+ddlcp_hvt      = 6.0611E-09    ntoxp_hvt      = 1             cfp_hvt        = '1.46E-10 + 2.8e-11*ccoflag_hvt' 
.lib 'models.sp' MOS_hvt
.ENDL SF_hvt

******************************   LIBRARY OF FNSP CORNER CASE   *******************************
.LIB FS_hvt
.param
+ccoflag_hvt=0
+toxn_hvt       = 1.93E-09      dxw_hvt        = 0             dxl_hvt        = 0             
+cjn_hvt        = 8.528E-04     cjswn_hvt      = 8.370E-11     cjswgn_hvt     = 3.999E-10     
+cgon_hvt       = 2.834E-11     cgln_hvt       = 1.203E-10     dvthn_hvt      = -0.032        
+dlvthn_hvt     = -1.25E-09     dwvthn_hvt     = -1.00E-9      dpvthn_hvt     = -0.40E-16     
+ddlcn_hvt      = 8.241E-09     ntoxn_hvt      = 1             cfn_hvt        = '1.460E-10 + 2.8e-11*ccoflag_hvt' 
+dlvoffn_hvt    = 0.3e-9        dwvoffn_hvt    = 0e-9          deta0n_hvt     = 0.07          
+dweta0n_hvt    = 7e-9          dlvsatn_hvt    = -4e-4         dpvsatn_hvt    = -1.0e-10      
+dlatn_hvt      = -1.8e-4       dpatn_hvt      = -9e-11        
+toxp_hvt       = 2.13E-09      
+cjp_hvt        = 1.024E-03     cjswp_hvt      = 7.597E-11     cjswgp_hvt     = 3.317E-10     
+cgop_hvt       = 6.974E-13     cglp_hvt       = 1.1085E-10    dvthp_hvt      = -0.04         
+dlvthp_hvt     = -3.50E-10     dwvthp_hvt     = -3.00e-10     dpvthp_hvt     = -1.70E-16     
+drdswp_hvt     = 0             du0p_hvt       = 1.5           dpu0p_hvt      = 0             
+dlvsatp_hvt    = 1.40E-03      dpvsatp_hvt    = 1e-10         dppclmp_hvt    = 0             
+dpnfactorp_hvt = 0             dvoffp_hvt     = 0             dlvoffp_hvt    = 0             
+dpvoffp_hvt    = -0.6E-16      dleta0p_hvt    = 1e-9          dweta0p_hvt    = 3e-9          
+dpa0p_hvt      = 0             dlk2p_hvt      = 9E-10         dlkt1p_hvt     = 0             
+dpkt1p_hvt     = 0             dlatp_hvt      = 8.0e-3        dpatp_hvt      = 1.5e-10       
+ddlcp_hvt      = 6.0611E-09    ntoxp_hvt      = 1             cfp_hvt        = '1.46E-10 + 2.8e-11*ccoflag_hvt' 
.lib 'models.sp' MOS_hvt
.ENDL FS_hvt

***************************************************************
*                                                             *
*                       1.8V DEVICE LIB                       *
*                                                             *
***************************************************************
******************************     LIBRARY OF TYPICAL CASE     *******************************
.LIB TT_18
.param
+ccoflag_18=0
+toxn_18        = 3.4500E-09    dxl_18         = 0             dxw_18         = 0             
+cjn_18         = 8.727E-04     cjswn_18       = 8.14259E-11   cjswgn_18      = 3.47696E-10   
+cgon_18        = 7.18726e-11   cgln_18        = 3.71636e-11   dvthn_18       = 0             
+dlvthn_18      = 0             dwvthn_18      = 0             dpvthn_18      = 0             
+dlu0n_18       = 0             dvsatn_18      = 0             cfn_18         = '1.285E-10 + 2.4e-11*ccoflag_18' 
+toxp_18        = 3.77E-09      
+cjp_18         = 9.547E-04     cjswp_18       = 6.6502E-11    cjswgp_18      = 2.72474E-10   
+cgop_18        = 1.03e-10      cglp_18        = 4.06e-11      dvthp_18       = 0             
+dlvthp_18      = 0             dwvthp_18      = 0             dvsatp_18      = 0             
+du0p_18        = 0             drdswp_18      = 0             cfp_18         = '1.285E-10 + 2.4e-11*ccoflag_18' 
.lib 'models.sp' MOS_18
.ENDL TT_18

******************************   LIBRARY OF SNSP CORNER CASE   *******************************
.LIB SS_18
.param
+ccoflag_18=0
+toxn_18        = 3.5833E-09    dxl_18         = 8.00E-09      dxw_18         = -1.20E-08     
+cjn_18         = 9.338E-04     cjswn_18       = 8.713E-11     cjswgn_18      = 3.720E-10     
+cgon_18        = 6.6842E-11    cgln_18        = 3.4562E-11    dvthn_18       = 3E-2          
+dlvthn_18      = 0.6e-9        dwvthn_18      = 0             dpvthn_18      = 7e-16         
+dlu0n_18       = -0.73e-5      dvsatn_18      = 0.56e4        cfn_18         = '1.195E-10 + 2.4e-11*ccoflag_18' 
+toxp_18        = 3.9033E-09    
+cjp_18         = 1.022E-03     cjswp_18       = 7.116E-11     cjswgp_18      = 2.915E-10     
+cgop_18        = 9.62E-11      cglp_18        = 3.77E-11      dvthp_18       = -3E-2         
+dlvthp_18      = -2.2E-9       dwvthp_18      = -6E-9         dvsatp_18      = 5e4           
+du0p_18        = -2.4          drdswp_18      = -10           cfp_18         = '1.195E-10 + 2.4e-11*ccoflag_18' 
.lib 'models.sp' MOS_18
.ENDL SS_18

******************************   LIBRARY OF FNFP CORNER CASE   *******************************
.LIB FF_18
.param
+ccoflag_18=0
+toxn_18        = 3.3167E-09    dxl_18         = -8.00E-09     dxw_18         = 1.20E-08      
+cjn_18         = 8.116E-04     cjswn_18       = 7.573E-11     cjswgn_18      = 3.234E-10     
+cgon_18        = 7.6904E-11    cgln_18        = 3.9765E-11    dvthn_18       = -3E-2         
+dlvthn_18      = -0.2e-9       dwvthn_18      = 0             dpvthn_18      = -5e-16        
+dlu0n_18       = 0.745e-5      dvsatn_18      = -0.4e4        cfn_18         = '1.375E-10 + 2.4e-11*ccoflag_18' 
+toxp_18        = 3.6367E-09    
+cjp_18         = 8.879E-04     cjswp_18       = 6.185E-11     cjswgp_18      = 2.534E-10     
+cgop_18        = 1.11E-10      cglp_18        = 4.34E-11      dvthp_18       = 3E-2          
+dlvthp_18      = 1.8E-9        dwvthp_18      = 4.3E-9        dvsatp_18      = -2.5e4        
+du0p_18        = 1.6           drdswp_18      = 0             cfp_18         = '1.375E-10 + 2.4e-11*ccoflag_18' 
.lib 'models.sp' MOS_18
.ENDL FF_18

******************************   LIBRARY OF SNFP CORNER CASE   *******************************
.LIB SF_18
.param
+ccoflag_18=0
+toxn_18        = 3.4500E-09    dxl_18         = 0             dxw_18         = 0             
+cjn_18         = 9.338E-04     cjswn_18       = 8.713E-11     cjswgn_18      = 3.720E-10     
+cgon_18        = 7.1873E-11    cgln_18        = 3.7164E-11    dvthn_18       = 3E-2          
+dlvthn_18      = 0.6e-9        dwvthn_18      = 0             dpvthn_18      = 7e-16         
+dlu0n_18       = 0             dvsatn_18      = 0             cfn_18         = '1.285E-10 + 2.4e-11*ccoflag_18' 
+toxp_18        = 3.7700E-09                 
+cjp_18         = 8.879E-04     cjswp_18       = 6.185E-11     cjswgp_18      = 2.534E-10     
+cgop_18        = 1.03e-10      cglp_18        = 4.06e-11      dvthp_18       = 3E-2          
+dlvthp_18      = 1.8E-9        dwvthp_18      = 4.3E-9        dvsatp_18      = 0             
+du0p_18        = 0             drdswp_18      = 0             cfp_18         = '1.285E-10 + 2.4e-11*ccoflag_18' 
.lib 'models.sp' MOS_18
.ENDL SF_18

******************************   LIBRARY OF FNSP CORNER CASE   *******************************
.LIB FS_18
.param
+ccoflag_18=0
+toxn_18        = 3.4500E-09    dxl_18         = 0             dxw_18         = 0             
+cjn_18         = 8.116E-04     cjswn_18       = 6.185E-11     cjswgn_18      = 3.234E-10     
+cgon_18        = 7.1873E-11    cgln_18        = 3.7164E-11    dvthn_18       = -3E-2         
+dlvthn_18      = -0.2e-9       dwvthn_18      = 0             dpvthn_18      = -5e-16        
+dlu0n_18       = 0             dvsatn_18      = 0             cfn_18         = '1.285E-10 + 2.4e-11*ccoflag_18' 
+toxp_18        = 3.7700E-09                
+cjp_18         = 1.022E-03     cjswp_18       = 7.116E-11     cjswgp_18      = 2.915E-10     
+cgop_18        = 1.03e-10      cglp_18        = 4.06e-11      dvthp_18       = -3E-2         
+dlvthp_18      = -2.2E-9       dwvthp_18      = -6E-9         dvsatp_18      = 0             
+du0p_18        = 0             drdswp_18      = 0             cfp_18         = '1.285E-10 + 2.4e-11*ccoflag_18' 
.lib 'models.sp' MOS_18
.ENDL FS_18

**********************************************************************************************
***************************************************************
*                                                             *
*               1.05V STANDARD VT DEVICE LIB                  *
*                                                             *
***************************************************************

.LIB MOS
.MODEL nch.1 NMOS	(	LEVEL      = 54                  LMIN       = '1.058003e-006-dxl' 
+LMAX       = 1.21e-06            WMIN       = '9e-006-dxw'        WMAX       = 900.01e-06          
+VERSION    = 4.4                 TEMPMOD    = 0                   BINUNIT    = 2                   
+PARAMCHK   = 1                   MOBMOD     = 0                   CAPMOD     = 2                   
+IGCMOD     = 1                   IGBMOD     = 1                   GEOMOD     = 0                   
+DIOMOD     = 1                   RDSMOD     = 1                   RBODYMOD   = 0                   
+RGEOMOD    = 1                   RGATEMOD   = 0                   PERMOD     = 1                   
+ACNQSMOD   = 0                   TRNQSMOD   = 0                   TNOM       = 25                  
+TOXE       = 'toxn'              TOXM       = 1.93e-009           DTOX       = 3.7e-010            
+EPSROX     = 3.9                 WINT       = 6e-009              LINT       = 7.046563E-09        
+LL         = 0                   WL         = 0                   LLN        = 1                   
+WLN        = 1                   LW         = 0                   WW         = 0                   
+LWN        = 1                   WWN        = 1                   LWL        = 0                   
+WWL        = 0                   LLC        = 0                   WLC        = 0                   
+LWC        = 0                   WWC        = 0                   LWLC       = 0                   
+WWLC       = 0                   DLC        = '7.046563E-09+ddlcn' 
+DWC        = 0                   XL         = '-4.5E-08+dxl'      XW         = '0.01e-6+dxw'       
+XPART      = 1                   TOXREF     = 3e-009              DLCIG      = 2.5e-009            
+VTH0       = '0.122+dvthn'       K1         = 0.158               K2         = 0.03                
+K3         = -4                  K3B        = 1.8                 W0         = 0                   
+DVT0       = 36.248463           LDVT0      = -1.1236167e-005     DVT1       = 1.8                 
+DVT2       = 0.08                DVT0W      = -2e-006             DVT1W      = 10000               
+DVT2W      = 0                   DSUB       = 0.5                 MINV       = 0                   
+VOFFL      = 0                   DVTP0      = 8.5e-007            DVTP1      = 2.5                 
+LPE0       = 9e-008              LPEB       = 4e-008              XJ         = 1.4e-007            
+NGATE      = 4e+020              NDEP       = 8.5e+017            NSD        = 1e+020              
+PHIN       = 0                   CDSC       = 0                   CDSCB      = 0                   
+CDSCD      = 0                   CIT        = 0                   VOFF       = -0.1037             
+NFACTOR    = 0.53045174          LNFACTOR   = -5.168637e-011      ETA0       = '0.18+deta0n'       
+ETAB       = -0.08               U0         = 288.5               UA         = -9.452e-010         
+UB         = 2.127e-018          UC         = 1.45e-010           VSAT       = 104255.01           
+LVSAT      = '4.4944669e-005+dlvsatn' 
+A0         = 4.5215411           LA0        = -5.4045965e-010     AGS        = 0.85301554          
+LAGS       = 5.6137016e-007      A1         = 0                   A2         = 1                   
+B0         = 0                   B1         = 0                   KETA       = -0.06               
+DWG        = 0                   DWB        = 0                   PCLM       = 0.2                 
+PDIBLC1    = 0.0001              PDIBLC2    = 0.002               PDIBLCB    = -0.1                
+DROUT      = 0.5                 PVAG       = 1.252               DELTA      = 0.01                
+PSCBE1     = 1e+009              PSCBE2     = 1e-020              FPROUT     = 0                   
+PDITS      = 0.2                 PDITSD     = 0.5                 PDITSL     = 0                   
+RSH        = 11.58               RDSW       = 200                 RSW        = 75                  
+RDW        = 75                  PRWG       = 0                   PRWB       = 0                   
+WR         = 1                   ALPHA0     = 0                   ALPHA1     = 0.93                
+BETA0      = 11.6                AGIDL      = 2.593e-009          BGIDL      = 1.698e+009          
+CGIDL      = 0.25                EGIDL      = 0.2624              AIGBACC    = 0.01152             
+BIGBACC    = 0.006537            CIGBACC    = 0.2809              NIGBACC    = 4.05                
+AIGBINV    = 0.35                BIGBINV    = 0.03                CIGBINV    = 0.006               
+EIGBINV    = 1.1                 NIGBINV    = 1                   AIGC       = 0.0099749693        
+LAIGC      = -2.2472335e-010     BIGC       = 0.0016              CIGC       = 1.515e-005          
+AIGSD      = 0.0084              BIGSD      = 0.0004353           CIGSD      = 3.925e-020          
+NIGC       = 1                   POXEDGE    = 1                   PIGCD      = 3.767               
+NTOX       = 'ntoxn'             XRCRG1     = 12                  XRCRG2     = 1                   
+CGSO       = 'cgon'              CGDO       = 'cgon'              CGBO       = 0                   
+CGDL       = 'cgln'              CGSL       = 'cgln'              CLC        = 1e-007              
+CLE        = 0.6                 CF         = 'cfn'               CKAPPAS    = 0.6                 
+CKAPPAD    = 0.6                 ACDE       = 1.5                 MOIN       = 12.6                
+NOFF       = 2.0                 VOFFCV     = -0.053              KT1        = -0.26               
+KT1L       = 0                   KT2        = -0.026              UTE        = -1.27               
+UA1        = 3.281099e-009       UB1        = -3.964452e-018      UC1        = -2e-010             
+PRT        = 0                   AT         = 200000              JSS        = 1.9E-07             
+JSD        = 1.9E-07             JSWS       = 4.5E-13             JSWD       = 4.5E-13             
+JSWGS      = 1.12E-12            JSWGD      = 1.12E-12            NJS        = 1                   
+NJD        = 1                   IJTHSFWD   = 0.01                IJTHDFWD   = 0.01                
+IJTHSREV   = 0.01                IJTHDREV   = 0.01                BVS        = 10                  
+BVD        = 10                  XJBVS      = 1                   XJBVD      = 1                   
+PBS        = 0.53                PBD        = 0.53                CJS        = 'cjn'               
+CJD        = 'cjn'               MJS        = 0.25                MJD        = 0.25                
+PBSWS      = 0.7                 PBSWD      = 0.7                 CJSWS      = 'cjswn'             
+CJSWD      = 'cjswn'             MJSWS      = 0.01                MJSWD      = 0.01                
+PBSWGS     = 0.5                 PBSWGD     = 0.5                 CJSWGS     = 'cjswgn'            
+CJSWGD     = 'cjswgn'            MJSWGS     = 0.7                 MJSWGD     = 0.7                 
+TPB        = 1.50E-03            TCJ        = 1.14E-03            TPBSW      = 1.90E-03            
+TCJSW      = 3.57E-04            TPBSWG     = 2.00E-03            TCJSWG     = 8.00E-03            
+XTIS       = 3                   XTID       = 3                   DMCG       = 9.65e-8             
+DMCI       = 9.65e-8             DMDG       = 0                   DMCGT      = 0                   
+DWJ        = 0                   XGW        = 0                   XGL        = 0                   
+RSHG       = 1                   GBMIN      = 1e-012              RBPB       = 50                  
+RBPD       = 50                  RBPS       = 50                  RBDB       = 50                  
+RBSB       = 50                  LVTH0      = '0+dlvthn'          WVTH0      = '0+dwvthn'          
+PVTH0      = '0+dpvthn'          LVOFF      = '0+dlvoffn'         WVOFF      = '0+dwvoffn'         
+WETA0      = '0+dweta0n'         PVSAT      = '0+dpvsatn'         
+SAREF      = 0.567E-6            SBREF      = 0.567E-6
+KVSAT      = 0.4                 WLOD       = 2E-7                TKU0       = 0.01
+KU0        = -5.0E-8             LLODKU0    = 1                   WLODKU0    = 1
+LKU0       = 7.02E-7             WKU0       = 6.8E-7              PKU0       = 0
+KVTH0      = 4.8E-9              STK2       = 0.88E-9             STETA0     = 0
+LKVTH0     = -2.68E-11           WKVTH0     = 1.5E-6              PKVTH0     = 0
+LLODVTH    = 1                   WLODVTH    = 1                   LODK2      = 1
+LODETA0    = 1 )


.MODEL nch.2 NMOS	(	LEVEL      = 54                  LMIN       = '4.340031e-007-dxl' 
+LMAX       = '1.058003e-006-dxl' WMIN       = '9e-006-dxw'        WMAX       = 900.01e-06          
+VERSION    = 4.4                 TEMPMOD    = 0                   BINUNIT    = 2                   
+PARAMCHK   = 1                   MOBMOD     = 0                   CAPMOD     = 2                   
+IGCMOD     = 1                   IGBMOD     = 1                   GEOMOD     = 0                   
+DIOMOD     = 1                   RDSMOD     = 1                   RBODYMOD   = 0                   
+RGEOMOD    = 1                   RGATEMOD   = 0                   PERMOD     = 1                   
+ACNQSMOD   = 0                   TRNQSMOD   = 0                   TNOM       = 25                  
+TOXE       = 'toxn'              TOXM       = 1.93e-009           DTOX       = 3.7e-010            
+EPSROX     = 3.9                 WINT       = 6e-009              LINT       = 7.046563E-09        
+LL         = 0                   WL         = 0                   LLN        = 1                   
+WLN        = 1                   LW         = 0                   WW         = 0                   
+LWN        = 1                   WWN        = 1                   LWL        = 0                   
+WWL        = 0                   LLC        = 0                   WLC        = 0                   
+LWC        = 0                   WWC        = 0                   LWLC       = 0                   
+WWLC       = 0                   DLC        = '7.046563E-09+ddlcn' 
+DWC        = 0                   XL         = '-4.5E-08+dxl'      XW         = '0.01e-6+dxw'       
+XPART      = 1                   TOXREF     = 3e-009              DLCIG      = 2.5e-009            
+VTH0       = '0.122+dvthn'       K1         = 0.158               K2         = 0.03                
+K3         = -4                  K3B        = 1.8                 W0         = 0                   
+DVT0       = 25                  DVT1       = 1.8                 DVT2       = 0.08                
+DVT0W      = -2e-006             DVT1W      = 10000               DVT2W      = 0                   
+DSUB       = 0.5                 MINV       = 0                   VOFFL      = 0                   
+DVTP0      = 8.5e-007            DVTP1      = 2.5                 LPE0       = 9e-008              
+LPEB       = 4e-008              XJ         = 1.4e-007            NGATE      = 4e+020              
+NDEP       = 8.5e+017            NSD        = 1e+020              PHIN       = 0                   
+CDSC       = 0                   CDSCB      = 0                   CDSCD      = 0                   
+CIT        = 0                   VOFF       = -0.099133826        LVOFF      = '-4.5611825e-009+dlvoffn' 
+NFACTOR    = 0.51249579          LNFACTOR   = 1.7884637e-008      ETA0       = '0.18+deta0n'       
+ETAB       = -0.08               U0         = 296.25048           LU0        = -7.7420071e-006     
+UA         = -7.7048377e-010     LUA        = -1.7452525e-016     UB         = 2.0494952e-018      
+LUB        = 7.7420071e-026      UC         = 1.45e-010           VSAT       = 104300              
+A0         = 5.0833603           LA0        = -5.6174563e-007     AGS        = 1.232353            
+LAGS       = 1.824473e-007       A1         = 0                   A2         = 1                   
+B0         = 0                   B1         = 0                   KETA       = -0.06               
+DWG        = 0                   DWB        = 0                   PCLM       = 0.079837532         
+LPCLM      = 1.2003112e-007      PDIBLC1    = 0.0001              PDIBLC2    = 0.0015193501        
+LPDIBLC2   = 4.8012447e-010      PDIBLCB    = -0.1                DROUT      = 0.5                 
+PVAG       = 1.252               DELTA      = 0.01                PSCBE1     = 1e+009              
+PSCBE2     = 1e-020              FPROUT     = 0                   PDITS      = 0.2                 
+PDITSD     = 0.5                 PDITSL     = 0                   RSH        = 11.58               
+RDSW       = 200                 RSW        = 75                  RDW        = 75                  
+PRWG       = 0                   PRWB       = 0                   WR         = 1                   
+ALPHA0     = 0                   ALPHA1     = 0.93                BETA0      = 11.6                
+AGIDL      = 2.593e-009          BGIDL      = 1.698e+009          CGIDL      = 0.25                
+EGIDL      = 0.2624              AIGBACC    = 0.01152             BIGBACC    = 0.006537            
+CIGBACC    = 0.2809              NIGBACC    = 4.05                AIGBINV    = 0.35                
+BIGBINV    = 0.03                CIGBINV    = 0.006               EIGBINV    = 1.1                 
+NIGBINV    = 1                   AIGC       = 0.00975             BIGC       = 0.0016              
+CIGC       = 1.515e-005          AIGSD      = 0.0084              BIGSD      = 0.0004353           
+CIGSD      = 3.925e-020          NIGC       = 1                   POXEDGE    = 1                   
+PIGCD      = 3.767               NTOX       = 'ntoxn'             XRCRG1     = 12                  
+XRCRG2     = 1                   CGSO       = 'cgon'              CGDO       = 'cgon'              
+CGBO       = 0                   CGDL       = 'cgln'              CGSL       = 'cgln'              
+CLC        = 1e-007              CLE        = 0.6                 CF         = 'cfn'               
+CKAPPAS    = 0.6                 CKAPPAD    = 0.6                 ACDE       = 1.5                 
+MOIN       = 12.6                NOFF       = 2.0                 VOFFCV     = -0.053              
+KT1        = -0.26               KT1L       = 0                   KT2        = -0.026              
+UTE        = -1.1696643          LUTE       = -1.0022598e-007     UA1        = 4.2371693e-009      
+LUA1       = -9.5502519e-016     UB1        = -5.0758016e-018     LUB1       = 1.1101348e-024      
+UC1        = -2e-010             PRT        = 0                   AT         = 260081.23           
+LAT        = -0.060015559        JSS        = 1.9E-07             JSD        = 1.9E-07             
+JSWS       = 4.5E-13             JSWD       = 4.5E-13             JSWGS      = 1.12E-12            
+JSWGD      = 1.12E-12            NJS        = 1                   NJD        = 1                   
+IJTHSFWD   = 0.01                IJTHDFWD   = 0.01                IJTHSREV   = 0.01                
+IJTHDREV   = 0.01                BVS        = 10                  BVD        = 10                  
+XJBVS      = 1                   XJBVD      = 1                   PBS        = 0.53                
+PBD        = 0.53                CJS        = 'cjn'               CJD        = 'cjn'               
+MJS        = 0.25                MJD        = 0.25                PBSWS      = 0.7                 
+PBSWD      = 0.7                 CJSWS      = 'cjswn'             CJSWD      = 'cjswn'             
+MJSWS      = 0.01                MJSWD      = 0.01                PBSWGS     = 0.5                 
+PBSWGD     = 0.5                 CJSWGS     = 'cjswgn'            CJSWGD     = 'cjswgn'            
+MJSWGS     = 0.7                 MJSWGD     = 0.7                 TPB        = 1.50E-03            
+TCJ        = 1.14E-03            TPBSW      = 1.90E-03            TCJSW      = 3.57E-04            
+TPBSWG     = 2.00E-03            TCJSWG     = 8.00E-03            XTIS       = 3                   
+XTID       = 3                   DMCG       = 9.65e-8             DMCI       = 9.65e-8             
+DMDG       = 0                   DMCGT      = 0                   DWJ        = 0                   
+XGW        = 0                   XGL        = 0                   RSHG       = 1                   
+GBMIN      = 1e-012              RBPB       = 50                  RBPD       = 50                  
+RBPS       = 50                  RBDB       = 50                  RBSB       = 50                  
+LVTH0      = '0+dlvthn'          WVTH0      = '0+dwvthn'          PVTH0      = '0+dpvthn'          
+WVOFF      = '0+dwvoffn'         WETA0      = '0+dweta0n'         LVSAT      = '0+dlvsatn'         
+PVSAT      = '0+dpvsatn'         
+SAREF      = 0.567E-6            SBREF      = 0.567E-6
+KVSAT      = 0.4                 WLOD       = 2E-7                TKU0       = 0.01
+KU0        = -5.0E-8             LLODKU0    = 1                   WLODKU0    = 1
+LKU0       = 7.02E-7             WKU0       = 6.8E-7              PKU0       = 0
+KVTH0      = 4.8E-9              STK2       = 0.88E-9             STETA0     = 0
+LKVTH0     = -2.68E-11           WKVTH0     = 1.5E-6              PKVTH0     = 0
+LLODVTH    = 1                   WLODVTH    = 1                   LODK2      = 1
+LODETA0    = 1 )


.MODEL nch.3 NMOS	(	LEVEL      = 54                  LMIN       = '2.020031e-007-dxl' 
+LMAX       = '4.340031e-007-dxl' WMIN       = '9e-006-dxw'        WMAX       = 900.01e-06          
+VERSION    = 4.4                 TEMPMOD    = 0                   BINUNIT    = 2                   
+PARAMCHK   = 1                   MOBMOD     = 0                   CAPMOD     = 2                   
+IGCMOD     = 1                   IGBMOD     = 1                   GEOMOD     = 0                   
+DIOMOD     = 1                   RDSMOD     = 1                   RBODYMOD   = 0                   
+RGEOMOD    = 1                   RGATEMOD   = 0                   PERMOD     = 1                   
+ACNQSMOD   = 0                   TRNQSMOD   = 0                   TNOM       = 25                  
+TOXE       = 'toxn'              TOXM       = 1.93e-009           DTOX       = 3.7e-010            
+EPSROX     = 3.9                 WINT       = 6e-009              LINT       = 7.046563E-09        
+LL         = 0                   WL         = 0                   LLN        = 1                   
+WLN        = 1                   LW         = 0                   WW         = 0                   
+LWN        = 1                   WWN        = 1                   LWL        = 0                   
+WWL        = 0                   LLC        = 0                   WLC        = 0                   
+LWC        = 0                   WWC        = 0                   LWLC       = 0                   
+WWLC       = 0                   DLC        = '7.046563E-09+ddlcn' 
+DWC        = 0                   XL         = '-4.5E-08+dxl'      XW         = '0.01e-6+dxw'       
+XPART      = 1                   TOXREF     = 3e-009              DLCIG      = 2.5e-009            
+VTH0       = '0.1274822+dvthn'   LVTH0      = '-2.0553162e-009+dlvthn' 
+K1         = 0.158               K2         = 0.032463912         LK2        = -9.2373764e-010     
+K3         = -4                  K3B        = 1.8                 W0         = 0                   
+DVT0       = 25                  DVT1       = 1.8                 DVT2       = 0.08                
+DVT0W      = -2e-006             DVT1W      = 10000               DVT2W      = 0                   
+DSUB       = 0.5                 MINV       = 0                   VOFFL      = 0                   
+DVTP0      = 8.5e-007            DVTP1      = 2.5                 LPE0       = 9e-008              
+LPEB       = 4e-008              XJ         = 1.4e-007            NGATE      = 4e+020              
+NDEP       = 8.5e+017            NSD        = 1e+020              PHIN       = 0                   
+CDSC       = 0                   CDSCB      = 0                   CDSCD      = 0                   
+CIT        = 0                   VOFF       = -0.099781211        LVOFF      = '-4.3184734e-009+dlvoffn' 
+NFACTOR    = 0.61576122          LNFACTOR   = -2.0830284e-008     ETA0       = '0.18615978+deta0n' 
+LETA0      = -2.3093441e-009     ETAB       = -0.08               U0         = 294.32573           
+LU0        = -7.020406e-006      UA         = -1.1084926e-009     LUA        = -4.7803423e-017     
+UB         = 2.2861829e-018      LUB        = -1.1315786e-026     UC         = 1.4937344e-010      
+LUC        = -1.6396343e-018     VSAT       = 115572.4            LVSAT      = '-0.0042260997+dlvsatn' 
+A0         = 5.7871153           LA0        = -8.255882e-007      AGS        = 2.7772502           
+LAGS       = -3.9674531e-007     A1         = 0                   A2         = 1                   
+B0         = 0                   B1         = 0                   KETA       = -0.090798901        
+LKETA      = 1.154672e-008       DWG        = 0                   DWB        = 0                   
+PCLM       = 0.4615978           LPCLM      = -2.3093441e-008     PDIBLC1    = 0.0001              
+PDIBLC2    = 0.0026768044        LPDIBLC2   = 4.6186882e-011      PDIBLCB    = -0.1                
+DROUT      = 0.5                 PVAG       = 1.252               DELTA      = 0.01                
+PSCBE1     = 1e+009              PSCBE2     = 1e-020              FPROUT     = 0                   
+PDITS      = 0.2                 PDITSD     = 0.5                 PDITSL     = 0                   
+RSH        = 11.58               RDSW       = 200                 RSW        = 75                  
+RDW        = 75                  PRWG       = 0                   PRWB       = 0                   
+WR         = 1                   ALPHA0     = 0                   ALPHA1     = 0.93                
+BETA0      = 11.6                AGIDL      = 2.593e-009          BGIDL      = 1.698e+009          
+CGIDL      = 0.25                EGIDL      = 0.2624              AIGBACC    = 0.01152             
+BIGBACC    = 0.006537            CIGBACC    = 0.2809              NIGBACC    = 4.05                
+AIGBINV    = 0.35                BIGBINV    = 0.03                CIGBINV    = 0.006               
+EIGBINV    = 1.1                 NIGBINV    = 1                   AIGC       = 0.00975             
+BIGC       = 0.0016              CIGC       = 1.515e-005          AIGSD      = 0.0084              
+BIGSD      = 0.0004353           CIGSD      = 3.925e-020          NIGC       = 1                   
+POXEDGE    = 1                   PIGCD      = 3.767               NTOX       = 'ntoxn'             
+XRCRG1     = 12                  XRCRG2     = 1                   CGSO       = 'cgon'              
+CGDO       = 'cgon'              CGBO       = 0                   CGDL       = 'cgln'              
+CGSL       = 'cgln'              CLC        = 1e-007              CLE        = 0.6                 
+CF         = 'cfn'               CKAPPAS    = 0.6                 CKAPPAD    = 0.6                 
+ACDE       = 1.5                 MOIN       = 12.6                NOFF       = 2.0                 
+VOFFCV     = -0.053              KT1        = -0.25384022         LKT1       = -2.3093441e-009     
+KT1L       = 0                   KT2        = -0.026              UTE        = -1.3586328          
+LUTE       = -2.9380399e-008     UA1        = 1.7200149e-009      LUA1       = -1.132664e-017      
+UB1        = -1.7651512e-018     LUB1       = -1.3105089e-025     UC1        = -2e-010             
+PRT        = 0                   AT         = 135644.78           LAT        = -0.013363475        
+JSS        = 1.9E-07             JSD        = 1.9E-07             JSWS       = 4.5E-13             
+JSWD       = 4.5E-13             JSWGS      = 1.12E-12            JSWGD      = 1.12E-12            
+NJS        = 1                   NJD        = 1                   IJTHSFWD   = 0.01                
+IJTHDFWD   = 0.01                IJTHSREV   = 0.01                IJTHDREV   = 0.01                
+BVS        = 10                  BVD        = 10                  XJBVS      = 1                   
+XJBVD      = 1                   PBS        = 0.53                PBD        = 0.53                
+CJS        = 'cjn'               CJD        = 'cjn'               MJS        = 0.25                
+MJD        = 0.25                PBSWS      = 0.7                 PBSWD      = 0.7                 
+CJSWS      = 'cjswn'             CJSWD      = 'cjswn'             MJSWS      = 0.01                
+MJSWD      = 0.01                PBSWGS     = 0.5                 PBSWGD     = 0.5                 
+CJSWGS     = 'cjswgn'            CJSWGD     = 'cjswgn'            MJSWGS     = 0.7                 
+MJSWGD     = 0.7                 TPB        = 1.50E-03            TCJ        = 1.14E-03            
+TPBSW      = 1.90E-03            TCJSW      = 3.57E-04            TPBSWG     = 2.00E-03            
+TCJSWG     = 8.00E-03            XTIS       = 3                   XTID       = 3                   
+DMCG       = 9.65e-8             DMCI       = 9.65e-8             DMDG       = 0                   
+DMCGT      = 0                   DWJ        = 0                   XGW        = 0                   
+XGL        = 0                   RSHG       = 1                   GBMIN      = 1e-012              
+RBPB       = 50                  RBPD       = 50                  RBPS       = 50                  
+RBDB       = 50                  RBSB       = 50                  WVTH0      = '0+dwvthn'          
+PVTH0      = '0+dpvthn'          WVOFF      = '0+dwvoffn'         WETA0      = '0+dweta0n'         
+PVSAT      = '0+dpvsatn'         
+SAREF      = 0.567E-6            SBREF      = 0.567E-6
+KVSAT      = 0.4                 WLOD       = 2E-7                TKU0       = 0.01
+KU0        = -5.0E-8             LLODKU0    = 1                   WLODKU0    = 1
+LKU0       = 7.02E-7             WKU0       = 6.8E-7              PKU0       = 0
+KVTH0      = 4.8E-9              STK2       = 0.88E-9             STETA0     = 0
+LKVTH0     = -2.68E-11           WKVTH0     = 1.5E-6              PKVTH0     = 0
+LLODVTH    = 1                   WLODVTH    = 1                   LODK2      = 1
+LODETA0    = 1 )


.MODEL nch.4 NMOS	(	LEVEL      = 54                  LMIN       = '1.079999e-007-dxl' 
+LMAX       = '2.020031e-007-dxl' WMIN       = '9e-006-dxw'        WMAX       = 900.01e-06          
+VERSION    = 4.4                 TEMPMOD    = 0                   BINUNIT    = 2                   
+PARAMCHK   = 1                   MOBMOD     = 0                   CAPMOD     = 2                   
+IGCMOD     = 1                   IGBMOD     = 1                   GEOMOD     = 0                   
+DIOMOD     = 1                   RDSMOD     = 1                   RBODYMOD   = 0                   
+RGEOMOD    = 1                   RGATEMOD   = 0                   PERMOD     = 1                   
+ACNQSMOD   = 0                   TRNQSMOD   = 0                   TNOM       = 25                  
+TOXE       = 'toxn'              TOXM       = 1.93e-009           DTOX       = 3.7e-010            
+EPSROX     = 3.9                 WINT       = 6e-009              LINT       = -1.2070400E-09      
+LL         = 4.3827800E-03       WL         = 0                   LLN        = -0.84142000         
+WLN        = 1                   LW         = 0                   WW         = 0                   
+LWN        = 1                   WWN        = 1                   LWL        = 0                   
+WWL        = 0                   LLC        = 4.3827800E-03       WLC        = 0                   
+LWC        = 0                   WWC        = 0                   LWLC       = 0                   
+WWLC       = 0                   DLC        = '-1.2070400E-09+ddlcn' 
+DWC        = 0                   XL         = '-4.5E-08+dxl'      XW         = '0.01e-6+dxw'       
+XPART      = 1                   TOXREF     = 3e-009              DLCIG      = 2.5e-009            
+VTH0       = '0.10129724+dvthn'  LVTH0      = '1.686696e-009+dlvthn' 
+K1         = 0.158               K2         = 0.017141146         LK2        = 1.2659914e-009      
+K3         = -4                  K3B        = 1.8                 W0         = 0                   
+DVT0       = 25                  DVT1       = 1.8                 DVT2       = 0.08                
+DVT0W      = -2e-006             DVT1W      = 10000               DVT2W      = 0                   
+DSUB       = 0.5                 MINV       = 0                   VOFFL      = 0                   
+DVTP0      = 8.5e-007            DVTP1      = 2.5                 LPE0       = 9e-008              
+LPEB       = 4e-008              XJ         = 1.4e-007            NGATE      = 4e+020              
+NDEP       = 8.5e+017            NSD        = 1e+020              PHIN       = 0                   
+CDSC       = 0                   CDSCB      = 0                   CDSCD      = 0                   
+CIT        = 0                   VOFF       = -0.11439865         LVOFF      = '-2.2295407e-009+dlvoffn' 
+NFACTOR    = -0.059089288        LNFACTOR   = 7.561051e-008       ETA0       = '0.1632168+deta0n'  
+LETA0      = 9.6936551e-010      ETAB       = -0.082713278        LETAB      = 3.8774621e-010      
+U0         = 258.90206           LU0        = -1.9581183e-006     UA         = -1.6180065e-009     
+LUA        = 2.500963e-017       UB         = 2.4450902e-018      LUB        = -3.402473e-026      
+UC         = 1.6733907e-010      LUC        = -4.2070463e-018     VSAT       = 73179.76            
+LVSAT      = '0.0018321008+dlvsatn' 
+A0         = 0.010491607         LA0        = -6.8824951e-011     AGS        = -0.0051048764       
+LAGS       = 8.7242896e-010      A1         = 0                   A2         = 1                   
+B0         = 0                   B1         = 0                   KETA       = -0.030349588        
+LKETA      = 2.9080965e-009      DWG        = 0                   DWB        = 0                   
+PCLM       = 0.36783196          LPCLM      = -9.6936551e-009     PDIBLC1    = 0.0001              
+PDIBLC2    = 0.002586225         LPDIBLC2   = 5.9131296e-011      PDIBLCB    = -0.1                
+DROUT      = 0.5                 PVAG       = 1.252               DELTA      = 0.01                
+PSCBE1     = 1e+009              PSCBE2     = 1e-020              FPROUT     = 0                   
+PDITS      = 0.2                 PDITSD     = 0.5                 PDITSL     = 0                   
+RSH        = 11.58               RDSW       = 200                 RSW        = 75                  
+RDW        = 75                  PRWG       = 0                   PRWB       = 0                   
+WR         = 1                   ALPHA0     = 0                   ALPHA1     = 0.93                
+BETA0      = 11.6                AGIDL      = 2.593e-009          BGIDL      = 1.698e+009          
+CGIDL      = 0.25                EGIDL      = 0.2624              AIGBACC    = 0.01152             
+BIGBACC    = 0.006537            CIGBACC    = 0.2809              NIGBACC    = 4.05                
+AIGBINV    = 0.35                BIGBINV    = 0.03                CIGBINV    = 0.006               
+EIGBINV    = 1.1                 NIGBINV    = 1                   AIGC       = 0.00975             
+BIGC       = 0.0016              CIGC       = 1.515e-005          AIGSD      = 0.0084              
+BIGSD      = 0.0004353           CIGSD      = 3.925e-020          NIGC       = 1                   
+POXEDGE    = 1                   PIGCD      = 3.767               NTOX       = 'ntoxn'             
+XRCRG1     = 12                  XRCRG2     = 1                   CGSO       = 'cgon'              
+CGDO       = 'cgon'              CGBO       = 0                   CGDL       = 'cgln'              
+CGSL       = 'cgln'              CLC        = 1e-007              CLE        = 0.6                 
+CF         = 'cfn'               CKAPPAS    = 0.6                 CKAPPAD    = 0.6                 
+ACDE       = 1.5                 MOIN       = 12.6                NOFF       = 2.0                 
+VOFFCV     = -0.053              KT1        = -0.27               KT1L       = 0                   
+KT2        = -0.026              UTE        = -1.7740974          LUTE       = 2.9992363e-008      
+UA1        = 2.2541472e-009      LUA1       = -8.7657833e-017     UB1        = -3.8232491e-018     
+LUB1       = 1.630655e-025       UC1        = -2e-010             PRT        = 0                   
+AT         = 39170.829           LAT        = 0.00042331901       JSS        = 1.9E-07             
+JSD        = 1.9E-07             JSWS       = 4.5E-13             JSWD       = 4.5E-13             
+JSWGS      = 1.12E-12            JSWGD      = 1.12E-12            NJS        = 1                   
+NJD        = 1                   IJTHSFWD   = 0.01                IJTHDFWD   = 0.01                
+IJTHSREV   = 0.01                IJTHDREV   = 0.01                BVS        = 10                  
+BVD        = 10                  XJBVS      = 1                   XJBVD      = 1                   
+PBS        = 0.53                PBD        = 0.53                CJS        = 'cjn'               
+CJD        = 'cjn'               MJS        = 0.25                MJD        = 0.25                
+PBSWS      = 0.7                 PBSWD      = 0.7                 CJSWS      = 'cjswn'             
+CJSWD      = 'cjswn'             MJSWS      = 0.01                MJSWD      = 0.01                
+PBSWGS     = 0.5                 PBSWGD     = 0.5                 CJSWGS     = 'cjswgn'            
+CJSWGD     = 'cjswgn'            MJSWGS     = 0.7                 MJSWGD     = 0.7                 
+TPB        = 1.50E-03            TCJ        = 1.14E-03            TPBSW      = 1.90E-03            
+TCJSW      = 3.57E-04            TPBSWG     = 2.00E-03            TCJSWG     = 8.00E-03            
+XTIS       = 3                   XTID       = 3                   DMCG       = 9.65e-8             
+DMCI       = 9.65e-8             DMDG       = 0                   DMCGT      = 0                   
+DWJ        = 0                   XGW        = 0                   XGL        = 0                   
+RSHG       = 1                   GBMIN      = 1e-012              RBPB       = 50                  
+RBPD       = 50                  RBPS       = 50                  RBDB       = 50                  
+RBSB       = 50                  WVTH0      = '0+dwvthn'          PVTH0      = '0+dpvthn'          
+WVOFF      = '0+dwvoffn'         WETA0      = '0+dweta0n'         PVSAT      = '0+dpvsatn'         
+SAREF      = 0.567E-6            SBREF      = 0.567E-6
+KVSAT      = 0.4                 WLOD       = 2E-7                TKU0       = 0.01
+KU0        = -5.0E-8             LLODKU0    = 1                   WLODKU0    = 1
+LKU0       = 7.02E-7             WKU0       = 6.8E-7              PKU0       = 0
+KVTH0      = 4.8E-9              STK2       = 0.88E-9             STETA0     = 0
+LKVTH0     = -2.68E-11           WKVTH0     = 1.5E-6              PKVTH0     = 0
+LLODVTH    = 1                   WLODVTH    = 1                   LODK2      = 1
+LODETA0    = 1 )


.MODEL nch.5 NMOS	(	LEVEL      = 54                  LMIN       = 9e-08                   
+LMAX       = '1.079999e-007-dxl' WMIN       = '9e-006-dxw'        WMAX       = 900.01e-06          
+VERSION    = 4.4                 TEMPMOD    = 0                   BINUNIT    = 2                   
+PARAMCHK   = 1                   MOBMOD     = 0                   CAPMOD     = 2                   
+IGCMOD     = 1                   IGBMOD     = 1                   GEOMOD     = 0                   
+DIOMOD     = 1                   RDSMOD     = 1                   RBODYMOD   = 0                   
+RGEOMOD    = 1                   RGATEMOD   = 0                   PERMOD     = 1                   
+ACNQSMOD   = 0                   TRNQSMOD   = 0                   TNOM       = 25                  
+TOXE       = 'toxn'              TOXM       = 1.93e-009           DTOX       = 3.7e-010            
+EPSROX     = 3.9                 WINT       = 6e-009              LINT       = -8.6064050E-09      
+LL         = 5.4893200E-03       WL         = 0                   LLN        = -0.7901             
+WLN        = 1                   LW         = 0                   WW         = 0                   
+LWN        = 1                   WWN        = 1                   LWL        = 0                   
+WWL        = 0                   LLC        = 5.4893200E-03       WLC        = 0                   
+LWC        = 0                   WWC        = 0                   LWLC       = 0                   
+WWLC       = 0                   DLC        = '-8.6064050E-09+ddlcn' 
+DWC        = 0                   XL         = '-4.5E-08+dxl'      XW         = '0.01e-6+dxw'       
+XPART      = 1                   TOXREF     = 3e-009              DLCIG      = 2.5e-009            
+VTH0       = '0.1675353+dvthn'   LVTH0      = '-2.1390883e-009+dlvthn' 
+K1         = 0.158               K2         = 0.049853143         LK2        = -6.2339144e-010     
+K3         = -4                  K3B        = 1.8                 W0         = 0                   
+DVT0       = 25                  DVT1       = 1.8                 DVT2       = 0.08                
+DVT0W      = -2e-006             DVT1W      = 10000               DVT2W      = 0                   
+DSUB       = 0.5                 MINV       = 0                   VOFFL      = 0                   
+DVTP0      = 8.5e-007            DVTP1      = 2.5                 LPE0       = 9e-008              
+LPEB       = 4e-008              XJ         = 1.4e-007            NGATE      = 4e+020              
+NDEP       = 8.5e+017            NSD        = 1e+020              PHIN       = 0                   
+CDSC       = 0                   CDSCB      = 0                   CDSCD      = 0                   
+CIT        = 0                   VOFF       = -0.075402239        LVOFF      = '-4.4818993e-009+dlvoffn' 
+NFACTOR    = -1.3953782          LNFACTOR   = 1.5279202e-007      ETA0       = '0.33519552+deta0n' 
+LETA0      = -8.9637985e-009     ETAB       = -0.076              U0         = 300.83418           
+LU0        = -4.3800379e-006     UA         = -1.5130269e-009     LUA        = 1.8946211e-017      
+UB         = 2.1558095e-018      LUB        = -1.7316429e-026     UC         = 5.7464705e-011      
+LUC        = 2.1390883e-018      VSAT       = 99256.526           LVSAT      = '0.00032595631+dlvsatn' 
+A0         = 0.0068309803        LA0        = 1.4260589e-010      AGS        = -4.5400506          
+LAGS       = 2.6280228e-007      A1         = 0                   A2         = 1                   
+B0         = 0                   B1         = 0                   KETA       = 0.069380394         
+LKETA      = -2.8521177e-009     DWG        = 0                   DWB        = 0                   
+PCLM       = -0.57597761         LPCLM      = 4.4818993e-008      PDIBLC1    = 0.0001              
+PDIBLC2    = -0.011874281        LPDIBLC2   = 8.9434263e-010      PDIBLCB    = -0.1                
+DROUT      = 0.5                 PVAG       = 1.252               DELTA      = 0.01                
+PSCBE1     = 1e+009              PSCBE2     = 1e-020              FPROUT     = 0                   
+PDITS      = 0.2                 PDITSD     = 0.5                 PDITSL     = 0                   
+RSH        = 11.58               RDSW       = 200                 RSW        = 75                  
+RDW        = 75                  PRWG       = 0                   PRWB       = 0                   
+WR         = 1                   ALPHA0     = 0                   ALPHA1     = 0.93                
+BETA0      = 11.6                AGIDL      = 2.593e-009          BGIDL      = 1.698e+009          
+CGIDL      = 0.25                EGIDL      = 0.2624              AIGBACC    = 0.01152             
+BIGBACC    = 0.006537            CIGBACC    = 0.2809              NIGBACC    = 4.05                
+AIGBINV    = 0.35                BIGBINV    = 0.03                CIGBINV    = 0.006               
+EIGBINV    = 1.1                 NIGBINV    = 1                   AIGC       = 0.00975             
+BIGC       = 0.0016              CIGC       = 1.515e-005          AIGSD      = 0.0084              
+BIGSD      = 0.0004353           CIGSD      = 3.925e-020          NIGC       = 1                   
+POXEDGE    = 1                   PIGCD      = 3.767               NTOX       = 'ntoxn'             
+XRCRG1     = 12                  XRCRG2     = 1                   CGSO       = 'cgon'              
+CGDO       = 'cgon'              CGBO       = 0                   CGDL       = 'cgln'              
+CGSL       = 'cgln'              CLC        = 1e-007              CLE        = 0.6                 
+CF         = 'cfn'               CKAPPAS    = 0.6                 CKAPPAD    = 0.6                 
+ACDE       = 1.5                 MOIN       = 12.6                NOFF       = 2.0                 
+VOFFCV     = -0.053              KT1        = -0.27               KT1L       = 0                   
+KT2        = -0.026              UTE        = -2.2668876          LUTE       = 5.8454988e-008      
+UA1        = 5.8139708e-010      LUA1       = 8.9570349e-018      UB1        = -1e-018             
+UC1        = -7.2907565e-010     LUC1       = 3.0558404e-017      PRT        = 0                   
+AT         = 34154.902           LAT        = 0.00071302943       JSS        = 1.9E-07             
+JSD        = 1.9E-07             JSWS       = 4.5E-13             JSWD       = 4.5E-13             
+JSWGS      = 1.12E-12            JSWGD      = 1.12E-12            NJS        = 1                   
+NJD        = 1                   IJTHSFWD   = 0.01                IJTHDFWD   = 0.01                
+IJTHSREV   = 0.01                IJTHDREV   = 0.01                BVS        = 10                  
+BVD        = 10                  XJBVS      = 1                   XJBVD      = 1                   
+PBS        = 0.53                PBD        = 0.53                CJS        = 'cjn'               
+CJD        = 'cjn'               MJS        = 0.25                MJD        = 0.25                
+PBSWS      = 0.7                 PBSWD      = 0.7                 CJSWS      = 'cjswn'             
+CJSWD      = 'cjswn'             MJSWS      = 0.01                MJSWD      = 0.01                
+PBSWGS     = 0.5                 PBSWGD     = 0.5                 CJSWGS     = 'cjswgn'            
+CJSWGD     = 'cjswgn'            MJSWGS     = 0.7                 MJSWGD     = 0.7                 
+TPB        = 1.50E-03            TCJ        = 1.14E-03            TPBSW      = 1.90E-03            
+TCJSW      = 3.57E-04            TPBSWG     = 2.00E-03            TCJSWG     = 8.00E-03            
+XTIS       = 3                   XTID       = 3                   DMCG       = 9.65e-8             
+DMCI       = 9.65e-8             DMDG       = 0                   DMCGT      = 0                   
+DWJ        = 0                   XGW        = 0                   XGL        = 0                   
+RSHG       = 1                   GBMIN      = 1e-012              RBPB       = 50                  
+RBPD       = 50                  RBPS       = 50                  RBDB       = 50                  
+RBSB       = 50                  WVTH0      = '0+dwvthn'          PVTH0      = '0+dpvthn'          
+WVOFF      = '0+dwvoffn'         WETA0      = '0+dweta0n'         PVSAT      = '0+dpvsatn'         
+SAREF      = 0.567E-6            SBREF      = 0.567E-6
+KVSAT      = 0.4                 WLOD       = 2E-7                TKU0       = 0.01
+KU0        = -5.0E-8             LLODKU0    = 1                   WLODKU0    = 1
+LKU0       = 7.02E-7             WKU0       = 6.8E-7              PKU0       = 0
+KVTH0      = 4.8E-9              STK2       = 0.88E-9             STETA0     = 0
+LKVTH0     = -2.68E-11           WKVTH0     = 1.5E-6              PKVTH0     = 0
+LLODVTH    = 1                   WLODVTH    = 1                   LODK2      = 1
+LODETA0    = 1 )


.MODEL nch.6 NMOS	(	LEVEL      = 54                  LMIN       = '1.058003e-006-dxl' 
+LMAX       = 1.21e-06            WMIN       = '9e-007-dxw'        WMAX       = '9e-006-dxw'        
+VERSION    = 4.4                 TEMPMOD    = 0                   BINUNIT    = 2                   
+PARAMCHK   = 1                   MOBMOD     = 0                   CAPMOD     = 2                   
+IGCMOD     = 1                   IGBMOD     = 1                   GEOMOD     = 0                   
+DIOMOD     = 1                   RDSMOD     = 1                   RBODYMOD   = 0                   
+RGEOMOD    = 1                   RGATEMOD   = 0                   PERMOD     = 1                   
+ACNQSMOD   = 0                   TRNQSMOD   = 0                   TNOM       = 25                  
[...]
+ IBV  = 0.03                   TREF  = 25              FC    = 0
+ FCS  = 0                      TLEV  = 1               TLEVC = 1
+ XTI  = 3                      EG    = 1.17            LEVEL = 3 )

.ENDL DIO_18

*
**************************************************************************
*                                                                        *
*                 1.8V IO NMOS in N-Well varactor MODEL                  *
*                                                                        *
*  Note that the corners are defined such that the capacitance decreases *
*  and increases in SS and FF corners, respectively.  This is to align   *
*  the effects of Tox change to that of the direction of Tox skew in     *
*  MOSFET corners.                                                       *
*                                                                        *
**************************************************************************
***************** CORNER_LIB OF TYPICAL MODEL ****************************
.LIB TT_MOS_CAP_18
.param
+Cgmin_Var18= 1     dCg_Var18= 1     dxL_Var18= 0     dxW_Var18= 0
.lib 'models.sp' MOS_CAP_18
.ENDL TT_MOS_CAP_18
******************* CORNER_LIB OF SLOW MODEL *****************************
.LIB SS_MOS_CAP_18
.param
+Cgmin_Var18= 0.9     dCg_Var18= 0.942     dxL_Var18= 8E-09     dxW_Var18= -1.2E-08
.lib 'models.sp' MOS_CAP_18
.ENDL SS_MOS_CAP_18
******************* CORNER_LIB OF FAST MODEL *****************************
.LIB FF_MOS_CAP_18
.param
+Cgmin_Var18= 1.1     dCg_Var18= 1.058     dxL_Var18= -8E-09     dxW_Var18= 1.2E-08
.lib 'models.sp' MOS_CAP_18
.ENDL FF_MOS_CAP_18
**************************************************************************
*
*
**************************************************************************
*                                                                        *
*                 1.8V IO NMOS in N-Well varactor MODEL                  *
*                                                                        *
**************************************************************************
*
.LIB MOS_CAP_18
*
.subckt nmoscap_18 ng nds lr=1E-6 wr=1E-6 scale=1
.param XL=2E-08
.param XW=2.5E-08
.param area='(lr*scale-XL+dxL_Var18)*(wr*scale-XW+dxW_Var18)'
.param Cgmin='1.24E-10*Cgmin_Var18*(2*(wr*scale-XW+dxW_Var18)+lr*scale-XL+dxL_Var18)+2.8E-10*Cgmin_Var18*(lr*scale-XL+dxL_Var18)+1.29E-03*Cgmin_Var18*area'
.param dCg='2E-12*dCg_Var18*(2*(wr*scale-XW+dxW_Var18)+lr*scale-XL+dxL_Var18)+6.4E-11*dCg_var18*(lr*scale-XL+dxL_Var18)+4.25E-03*dCg_Var18*area'
.param dVgs='-0.1-2.000E-04*(temper-25)'
.param Vgnorm='0.4+1.0E-03*(temper-25)'
 
cg ng nds 'Cgmin+dCg*(1.0+tanh((v(ng,nds)-dVgs)/Vgnorm))'
 
.ends nmoscap_18

.ENDL MOS_CAP_18
*
**************************************************************************
*
*   RESISTANCE MODEL
*
**************************************************************************
.LIB TT_RES
.Param
+r_rnodwo        = 96.77           rend_rnodwo     = 11.42u          dxl_rnodwo      = 0.0u            dxw_rnodwo      = 0               
+r_rpodwo        = 197.47          rend_rpodwo     = 29.59u          dxl_rpodwo      = 0.0u            dxw_rpodwo      = 0               
+r_rnpolywo      = 105.21          rend_rnpolywo   = 15.7u           dxl_rnpolywo    = 0.0u            dxw_rnpolywo    = 0               
+r_rppolywo      = 456.43          rend_rppolywo   = 122.5u          dxl_rppolywo    = 0.0u            dxw_rppolywo    = 0               
+r_rppolyl       = 11.45           r_rppolys       = 11.45           dxw_rppolys     = 0               
+r_rnpolyl       = 11.55           r_rnpolys       = 11.55           dxw_rnpolys     = 0               
+r_rnodl         = 11.58           r_rnods         = 11.58           dxw_rnods       = 0               
+r_rpodl         = 10.45           r_rpods         = 10.45           dxw_rpods       = 0               
+r_rnwod         = 330             r_rnwsti        = 550             r_rm1l          = 0.0699          
+r_rm1s          = 0.11            r_rm1w          = 0.1             r_rm2_7l        = 0.0678          
+r_rm2_7s        = 0.0953          r_rm2_7w        = 0.0865          r_rm8_9l        = 0.0209          
+r_rm8_9s        = 0.022           r_rm8_9w        = 0.0195          
.lib 'models.sp' RES
.ENDL TT_RES

.LIB SS_RES
.Param
+r_rnodwo        = '96.77 * 1.15'  rend_rnodwo     = '11.42u * 1.90' dxl_rnodwo      = '0.0u + 0.0u'   dxw_rnodwo      = '0 + 0.040u'    
+r_rpodwo        = '197.47 * 1.25' rend_rpodwo     = '29.59u * 1.60' dxl_rpodwo      = '0.0u + 0.0u'   dxw_rpodwo      = '0 + 0.022u'    
+r_rnpolywo      = '105.21 * 1.15' rend_rnpolywo   = '15.7u * 1.90'  dxl_rnpolywo    = '0.0u + 0.0u'   dxw_rnpolywo    = '0 + 0.032u'    
+r_rppolywo      = '456.43 * 1.15' rend_rppolywo   = '122.5u * 1.60' dxl_rppolywo    = '0.0u + 0.0u'   dxw_rppolywo    = '0 + 0.035u'    
+r_rppolyl       = '11.45 * 1.20'  r_rppolys       = '11.45 * 1.21'  dxw_rppolys     = '0 + 0.012u'    
+r_rnpolyl       = '11.55 * 1.20'  r_rnpolys       = '11.55 * 1.21'  dxw_rnpolys     = '0 + 0.009u'    
+r_rnodl         = '11.58 * 1.15'  r_rnods         = '11.58 * 1.21'  dxw_rnods       = '0 + 0.016u'    
+r_rpodl         = '10.45 * 1.15'  r_rpods         = '10.45 * 1.21'  dxw_rpods       = '0 + 0.017u'    
+r_rnwod         = '330 * 1.20'    r_rnwsti        = '550 * 1.20'    r_rm1l          = '0.0699 * 1.20' 
+r_rm1s          = '0.11 * 1.20'   r_rm1w          = '0.1 * 1.20'    r_rm2_7l        = '0.0678 * 1.20' 
+r_rm2_7s        = '0.0953 * 1.20' r_rm2_7w        = '0.0865 * 1.20' r_rm8_9l        = '0.0209 * 1.20' 
+r_rm8_9s        = '0.022 * 1.20'  r_rm8_9w        = '0.0195 * 1.20' 
.lib 'models.sp' RES
.ENDL SS_RES

.LIB FF_RES
.Param
+r_rnodwo        = '96.77 * 0.85'  rend_rnodwo     = '11.42u * 0.10' dxl_rnodwo      = '0.0u + 0.0u'   dxw_rnodwo      = '0 - 0.040u'    
+r_rpodwo        = '197.47 * 0.75' rend_rpodwo     = '29.59u * 0.40' dxl_rpodwo      = '0.0u + 0.0u'   dxw_rpodwo      = '0 - 0.022u'    
+r_rnpolywo      = '105.21 * 0.85' rend_rnpolywo   = '15.7u * 0.10'  dxl_rnpolywo    = '0.0u + 0.0u'   dxw_rnpolywo    = '0 - 0.032u'    
+r_rppolywo      = '456.43 * 0.85' rend_rppolywo   = '122.5u * 0.40' dxl_rppolywo    = '0.0u + 0.0u'   dxw_rppolywo    = '0 - 0.035u'    
+r_rppolyl       = '11.45 * 0.80'  r_rppolys       = '11.45 * 0.79'  dxw_rppolys     = '0 - 0.027u'    
+r_rnpolyl       = '11.55 * 0.80'  r_rnpolys       = '11.55 * 0.79'  dxw_rnpolys     = '0 - 0.022u'    
+r_rnodl         = '11.58 * 0.85'  r_rnods         = '11.58 * 0.79'  dxw_rnods       = '0 - 0.037u'    
+r_rpodl         = '10.45 * 0.85'  r_rpods         = '10.45 * 0.79'  dxw_rpods       = '0 - 0.036u'    
+r_rnwod         = '330 * 0.80'    r_rnwsti        = '550 * 0.80'    r_rm1l          = '0.0699 * 0.80' 
+r_rm1s          = '0.11 * 0.80'   r_rm1w          = '0.1 * 0.80'    r_rm2_7l        = '0.0678 * 0.80' 
+r_rm2_7s        = '0.0953 * 0.80' r_rm2_7w        = '0.0865 * 0.80' r_rm8_9l        = '0.0209 * 0.80' 
+r_rm8_9s        = '0.022 * 0.80'  r_rm8_9w        = '0.0195 * 0.80' 
.lib 'models.sp' RES
.ENDL FF_RES

.LIB RES

***********************************     N+OD w/o silicide resistor     ***********************************
.subckt rnodwo n1 n2 l=length w=width  scale=1
.param Rsh = r_rnodwo
.param Rend0 = rend_rnodwo
.param dw = '-0.014966091u + dxw_rnodwo'  dl = '0 + dxl_rnodwo'  
.param pvcp1 = -6.16E-02   pvcp2 = -1.02E-05   pvcp3 = 2.15E+00   ptcp1 = 1.58E-03   ptcp2 = 7.34E-07   
.param pvce1 = -5.65E-02   pvce2 = -5.16E+02   pvce3 = 2.78E-01   ptce1 = 7.57E-04   ptce2 = -1.28E-07   
.param tface='1.0+ptce1*(pt-25.0)+ptce2*(pt-25.0)*(pt-25.0)'
.param tfacp='1.0+ptcp1*(pt-25.0)+ptcp2*(pt-25.0)*(pt-25.0)'
.param pt='temper'
Rend1 n1 3 'Rend0/w/scale*tface*(1+pvce1*(tanh(pvce2*abs(v(n1,3))+pvce3)-tanh(pvce3)))'
Rp 3 4 'Rsh*(l*scale-dl)/(w*scale-dw)*tfacp*(1+pvcp1*(tanh(pvcp2*abs(v(3,4)/(l*scale-dl))+pvcp3)-tanh(pvcp3)))'
Rend2 4 n2 'Rend0/w/scale*tface*(1+pvce1*(tanh(pvce2*abs(v(4,n2))+pvce3)-tanh(pvce3)))'
.ends rnodwo

***********************************     P+OD w/o silicide resistor     ***********************************
.subckt rpodwo n1 n2 l=length w=width  scale=1
.param Rsh = r_rpodwo
.param Rend0 = rend_rpodwo
.param dw = '-0.013624761u + dxw_rpodwo'  dl = '0 + dxl_rpodwo'  
.param pvcp1 = -2.01E-02   pvcp2 = -6.48E-06   pvcp3 = 1.50E+00   ptcp1 = 1.22E-03   ptcp2 = 8.27E-07   
.param pvce1 = -6.57E-02   pvce2 = 1.92E+02   pvce3 = 1.77E-01   ptce1 = -4.04E-04   ptce2 = -1.32E-06   
.param tface='1.0+ptce1*(pt-25.0)+ptce2*(pt-25.0)*(pt-25.0)'
.param tfacp='1.0+ptcp1*(pt-25.0)+ptcp2*(pt-25.0)*(pt-25.0)'
.param pt='temper'
Rend1 n1 3 'Rend0/w/scale*tface*(1+pvce1*(tanh(pvce2*abs(v(n1,3))+pvce3)-tanh(pvce3)))'
Rp 3 4 'Rsh*(l*scale-dl)/(w*scale-dw)*tfacp*(1+pvcp1*(tanh(pvcp2*abs(v(3,4)/(l*scale-dl))+pvcp3)-tanh(pvcp3)))'
Rend2 4 n2 'Rend0/w/scale*tface*(1+pvce1*(tanh(pvce2*abs(v(4,n2))+pvce3)-tanh(pvce3)))'
.ends rpodwo

***********************************     N+POLY w/o silicide resistor     ***********************************
.subckt rnpolywo n1 n2 l=length w=width  scale=1
.param Rsh = r_rnpolywo
.param Rend0 = rend_rnpolywo
.param dw = '0.110291503u + dxw_rnpolywo'  dl = '0 + dxl_rnpolywo'  
.param pvcp1 = 7.30E-03   pvcp2 = 5.55E-06   pvcp3 = 4.00E-05   ptcp1 = 2.31E-04   ptcp2 = 3.96E-07   
.param pvce1 = -2.25E-02   pvce2 = -2.62E+02   pvce3 = 1.51E+00   ptce1 = -3.84E-05   ptce2 = 8.32E-08   
.param tface='1.0+ptce1*(pt-25.0)+ptce2*(pt-25.0)*(pt-25.0)'
.param tfacp='1.0+ptcp1*(pt-25.0)+ptcp2*(pt-25.0)*(pt-25.0)'
.param pt='temper'
Rend1 n1 3 'Rend0/w/scale*tface*(1+pvce1*(tanh(pvce2*abs(v(n1,3))+pvce3)-tanh(pvce3)))'
Rp 3 4 'Rsh*(l*scale-dl)/(w*scale-dw)*tfacp*(1+pvcp1*(tanh(pvcp2*abs(v(3,4)/(l*scale-dl))+pvcp3)-tanh(pvcp3)))'
Rend2 4 n2 'Rend0/w/scale*tface*(1+pvce1*(tanh(pvce2*abs(v(4,n2))+pvce3)-tanh(pvce3)))'
.ends rnpolywo

***********************************     P+POLY w/o silicide resistor     ***********************************
.subckt rppolywo n1 n2 l=length w=width  scale=1
.param Rsh = r_rppolywo
.param Rend0 = rend_rppolywo
.param dw = '0.0864u + dxw_rppolywo'  dl = '0 + dxl_rppolywo'  
.param pvcp1 = 1.28E-01   pvcp2 = -5.22E-06   pvcp3 = 3.03E+00   ptcp1 = -1.57E-04   ptcp2 = 7.05E-07   
.param pvce1 = -9.42E-02   pvce2 = 8.24E+00   pvce3 = -8.47E-01   ptce1 = -1.33E-03   ptce2 = 6.57E-07   
.param tface='1.0+ptce1*(pt-25.0)+ptce2*(pt-25.0)*(pt-25.0)'
.param tfacp='1.0+ptcp1*(pt-25.0)+ptcp2*(pt-25.0)*(pt-25.0)'
.param pt='temper'
Rend1 n1 3 'Rend0/w/scale*tface*(1+pvce1*(tanh(pvce2*abs(v(n1,3))+pvce3)-tanh(pvce3)))'
Rp 3 4 'Rsh*(l*scale-dl)/(w*scale-dw)*tfacp*(1+pvcp1*(tanh(pvcp2*abs(v(3,4)/(l*scale-dl))+pvcp3)-tanh(pvcp3)))'
Rend2 4 n2 'Rend0/w/scale*tface*(1+pvce1*(tanh(pvce2*abs(v(4,n2))+pvce3)-tanh(pvce3)))'
.ends rppolywo

***********************************     P+POLY silicide resistor (W>=1.8um)     ***********************************
.subckt rppolyl n1 n2 l=length w=width scale=1
.param Rsh = r_rppolyl
.param dw = 0.005u  
.param pvc1 = 3.57E-07   pvc2 = 4.46E-11   ptc1 = 2.75E-03   ptc2 = 1.48E-07   
.param tfac='1.0+ptc1*(pt-25.0)+ptc2*(pt-25.0)*(pt-25.0)'
.param pt='temper'
r1 n1 n2 'rsh*l*scale/(w*scale-dw)*(1+pvc1*(abs(v(n2,n1))/l/scale)+pvc2*(v(n2,n1)/l/scale)*(v(n2,n1)/l/scale))*tfac'
.ends rppolyl

***********************************     P+POLY silicide resistor (W<1.8um)     ***********************************
.subckt rppolys n1 n2 l=length w=width scale=1
.param Rsh = r_rppolys
.param dw = '0.005u + dxw_rppolys'  
.param pvc1 = 3.06E-09   pvc2 = 7.64E-12   ptc1 = 3.13E-03   ptc2 = 2.71E-07   
.param tfac='1.0+ptc1*(pt-25.0)+ptc2*(pt-25.0)*(pt-25.0)'
.param pt='temper'
r1 n1 n2 'rsh*l*scale/(w*scale-dw)*(1+pvc1*(abs(v(n2,n1))/l/scale)+pvc2*(v(n2,n1)/l/scale)*(v(n2,n1)/l/scale))*tfac'
.ends rppolys

***********************************     N+POLY silicide resistor (W>=1.8um)     ***********************************
.subckt rnpolyl n1 n2 l=length w=width scale=1
.param Rsh = r_rnpolyl
.param dw = 0.024u  
.param pvc1 = 3.51E-07   pvc2 = 4.39E-11   ptc1 = 2.59E-03   ptc2 = -1.68E-07   
.param tfac='1.0+ptc1*(pt-25.0)+ptc2*(pt-25.0)*(pt-25.0)'
.param pt='temper'
r1 n1 n2 'rsh*l*scale/(w*scale-dw)*(1+pvc1*(abs(v(n2,n1))/l/scale)+pvc2*(v(n2,n1)/l/scale)*(v(n2,n1)/l/scale))*tfac'
.ends rnpolyl

***********************************     N+POLY silicide resistor (W<1.8um)     ***********************************
.subckt rnpolys n1 n2 l=length w=width scale=1
.param Rsh = r_rnpolys
.param dw = '0.024u + dxw_rnpolys'  
.param pvc1 = 5.83E-08   pvc2 = 5.83E-12   ptc1 = 3.06E-03   ptc2 = 1.61E-07   
.param tfac='1.0+ptc1*(pt-25.0)+ptc2*(pt-25.0)*(pt-25.0)'
.param pt='temper'
r1 n1 n2 'rsh*l*scale/(w*scale-dw)*(1+pvc1*(abs(v(n2,n1))/l/scale)+pvc2*(v(n2,n1)/l/scale)*(v(n2,n1)/l/scale))*tfac'
.ends rnpolys

***********************************     N+OD silicide resistor (W>=1.8um)     ***********************************
.subckt rnodl n1 n2 l=length w=width scale=1
.param Rsh = r_rnodl
.param dw = -0.015u  
.param pvc1 = 2.72E-08   pvc2 = 8.16E-12   ptc1 = 3.23E-03   ptc2 = 1.26E-07   
.param tfac='1.0+ptc1*(pt-25.0)+ptc2*(pt-25.0)*(pt-25.0)'
.param pt='temper'
r1 n1 n2 'rsh*l*scale/(w*scale-dw)*(1+pvc1*(abs(v(n2,n1))/l/scale)+pvc2*(v(n2,n1)/l/scale)*(v(n2,n1)/l/scale))*tfac'
.ends rnodl

***********************************     N+OD silicide resistor (W<1.8um)     ***********************************
.subckt rnods n1 n2 l=length w=width scale=1
.param Rsh = r_rnods
.param dw = '-0.015u + dxw_rnods'  
.param pvc1 = 2.78E-09   pvc2 = 6.94E-12   ptc1 = 2.93E-03   ptc2 = 1.32E-07   
.param tfac='1.0+ptc1*(pt-25.0)+ptc2*(pt-25.0)*(pt-25.0)'
.param pt='temper'
r1 n1 n2 'rsh*l*scale/(w*scale-dw)*(1+pvc1*(abs(v(n2,n1))/l/scale)+pvc2*(v(n2,n1)/l/scale)*(v(n2,n1)/l/scale))*tfac'
.ends rnods

***********************************     P+OD silicide resistor (W>=1.8um)     ***********************************
.subckt rpodl n1 n2 l=length w=width scale=1
.param Rsh = r_rpodl
.param dw = -0.024u  
.param pvc1 = 1.01E-08   pvc2 = 9.05E-12   ptc1 = 3.33E-03   ptc2 = 2.43E-07   
.param tfac='1.0+ptc1*(pt-25.0)+ptc2*(pt-25.0)*(pt-25.0)'
.param pt='temper'
r1 n1 n2 'rsh*l*scale/(w*scale-dw)*(1+pvc1*(abs(v(n2,n1))/l/scale)+pvc2*(v(n2,n1)/l/scale)*(v(n2,n1)/l/scale))*tfac'
.ends rpodl

***********************************     P+OD silicide resistor (W<1.8um)     ***********************************
.subckt rpods n1 n2 l=length w=width scale=1
.param Rsh = r_rpods
.param dw = '-0.024u + dxw_rpods'  
.param pvc1 = -6.58E-08   pvc2 = 5.27E-12   ptc1 = 2.90E-03   ptc2 = 1.77E-07   
.param tfac='1.0+ptc1*(pt-25.0)+ptc2*(pt-25.0)*(pt-25.0)'
.param pt='temper'
r1 n1 n2 'rsh*l*scale/(w*scale-dw)*(1+pvc1*(abs(v(n2,n1))/l/scale)+pvc2*(v(n2,n1)/l/scale)*(v(n2,n1)/l/scale))*tfac'
.ends rpods

***********************************     N-Well under OD resistor     ***********************************
.subckt rnwod n1 n2 l=length w=width scale=1
.param rsh = r_rnwod
.param dw = 0.29u  
.param pvc1 = 0.0124   pvc2 = -0.000298   ptc1 = 2.83E-03   ptc2 = 1.04E-05   
.param tfac='1.0+ptc1*(pt-25.0)+ptc2*(pt-25.0)*(pt-25.0)'
.param pt='temper'
r1 n1 n2 'rsh*l*scale/(w*scale-dw)*(1+pvc1*abs(v(n2,n1))+pvc2*v(n2,n1)*v(n2,n1))*tfac'
.ends rnwod

***********************************     N-well under STI resistor     ***********************************
.subckt rnwsti n1 n2 l=length w=width scale=1
.param rsh = r_rnwsti
.param dw = 0.41u  
.param pvc1 = 0.0116   pvc2 = -0.000457   ptc1 = 1.73E-03   ptc2 = 9.66E-06   
.param tfac='1.0+ptc1*(pt-25.0)+ptc2*(pt-25.0)*(pt-25.0)'
.param pt='temper'
r1 n1 n2 'rsh*l*scale/(w*scale-dw)*(1+pvc1*abs(v(n2,n1))+pvc2*v(n2,n1)*v(n2,n1))*tfac'
.ends rnwsti

***********************************     Metal 1 with W/S=0.108/0.324     ***********************************
.subckt rm1l n1 n2 l=length w=width scale=1
.param Rsh = r_rm1l
.param dw = 0  
.param pvc1 = 0   pvc2 = 0   ptc1 = 3.24E-03   ptc2 = 3.37E-07   
.param tfac='1.0+ptc1*(pt-25.0)+ptc2*(pt-25.0)*(pt-25.0)'
.param pt='temper'
r1 n1 n2 'rsh*l*scale/(w*scale-dw)*(1+pvc1*(abs(v(n2,n1))/l/scale)+pvc2*(v(n2,n1)/l/scale)*(v(n2,n1)/l/scale))*tfac'
.ends rm1l

***********************************     Metal 1 with W/S=0.108/0.108     ***********************************
.subckt rm1s n1 n2 l=length w=width scale=1
.param Rsh = r_rm1s
.param dw = 0  
.param pvc1 = 0   pvc2 = 0   ptc1 = 3.24E-03   ptc2 = 3.37E-07   
.param tfac='1.0+ptc1*(pt-25.0)+ptc2*(pt-25.0)*(pt-25.0)'
.param pt='temper'
r1 n1 n2 'rsh*l*scale/(w*scale-dw)*(1+pvc1*(abs(v(n2,n1))/l/scale)+pvc2*(v(n2,n1)/l/scale)*(v(n2,n1)/l/scale))*tfac'
.ends rm1s

***********************************     Metal 1 with W/S=0.324/0.162     ***********************************
.subckt rm1w n1 n2 l=length w=width scale=1
.param Rsh = r_rm1w
.param dw = 0  
.param pvc1 = 0   pvc2 = 0   ptc1 = 3.24E-03   ptc2 = 3.37E-07   
.param tfac='1.0+ptc1*(pt-25.0)+ptc2*(pt-25.0)*(pt-25.0)'
.param pt='temper'
r1 n1 n2 'rsh*l*scale/(w*scale-dw)*(1+pvc1*(abs(v(n2,n1))/l/scale)+pvc2*(v(n2,n1)/l/scale)*(v(n2,n1)/l/scale))*tfac'
.ends rm1w

***********************************     Metal 2 to 7 with W/S=0.126/0.378     ***********************************
.subckt rm2_7l n1 n2 l=length w=width scale=1
.param Rsh = r_rm2_7l
.param dw = 0  
.param pvc1 = 0   pvc2 = 0   ptc1 = 3.29E-03   ptc2 = -1.32E-07   
.param tfac='1.0+ptc1*(pt-25.0)+ptc2*(pt-25.0)*(pt-25.0)'
.param pt='temper'
r1 n1 n2 'rsh*l*scale/(w*scale-dw)*(1+pvc1*(abs(v(n2,n1))/l/scale)+pvc2*(v(n2,n1)/l/scale)*(v(n2,n1)/l/scale))*tfac'
.ends rm2_7l

***********************************     Metal 2 to 7 with W/S=0.126/0.126     ***********************************
.subckt rm2_7s n1 n2 l=length w=width scale=1
.param Rsh = r_rm2_7s
.param dw = 0  
.param pvc1 = 0   pvc2 = 0   ptc1 = 3.29E-03   ptc2 = -1.32E-07   
.param tfac='1.0+ptc1*(pt-25.0)+ptc2*(pt-25.0)*(pt-25.0)'
.param pt='temper'
r1 n1 n2 'rsh*l*scale/(w*scale-dw)*(1+pvc1*(abs(v(n2,n1))/l/scale)+pvc2*(v(n2,n1)/l/scale)*(v(n2,n1)/l/scale))*tfac'
.ends rm2_7s

***********************************     Metal 2 to 7 with W/S=0.378/0.189     ***********************************
.subckt rm2_7w n1 n2 l=length w=width scale=1
.param Rsh = r_rm2_7w
.param dw = 0  
.param pvc1 = 0   pvc2 = 0   ptc1 = 3.29E-03   ptc2 = -1.32E-07   
.param tfac='1.0+ptc1*(pt-25.0)+ptc2*(pt-25.0)*(pt-25.0)'
.param pt='temper'
r1 n1 n2 'rsh*l*scale/(w*scale-dw)*(1+pvc1*(abs(v(n2,n1))/l/scale)+pvc2*(v(n2,n1)/l/scale)*(v(n2,n1)/l/scale))*tfac'
.ends rm2_7w

***********************************     Metal 8 to 9 with W/S=0.378/0.567     ***********************************
.subckt rm8_9l n1 n2 l=length w=width scale=1
.param Rsh = r_rm8_9l
.param dw = 0  
.param pvc1 = 0   pvc2 = 0   ptc1 = 3.37E-03   ptc2 = 3.37E-07   
.param tfac='1.0+ptc1*(pt-25.0)+ptc2*(pt-25.0)*(pt-25.0)'
.param pt='temper'
r1 n1 n2 'rsh*l*scale/(w*scale-dw)*(1+pvc1*(abs(v(n2,n1))/l/scale)+pvc2*(v(n2,n1)/l/scale)*(v(n2,n1)/l/scale))*tfac'
.ends rm8_9l

***********************************     Metal 8 to 9 with W/S=0.378/0.378     ***********************************
.subckt rm8_9s n1 n2 l=length w=width scale=1
.param Rsh = r_rm8_9s
.param dw = 0  
.param pvc1 = 0   pvc2 = 0   ptc1 = 3.37E-03   ptc2 = 3.37E-07   
.param tfac='1.0+ptc1*(pt-25.0)+ptc2*(pt-25.0)*(pt-25.0)'
.param pt='temper'
r1 n1 n2 'rsh*l*scale/(w*scale-dw)*(1+pvc1*(abs(v(n2,n1))/l/scale)+pvc2*(v(n2,n1)/l/scale)*(v(n2,n1)/l/scale))*tfac'
.ends rm8_9s

***********************************     Metal 8 to 9 with W/S=0.378/1.134     ***********************************
.subckt rm8_9w n1 n2 l=length w=width scale=1
.param Rsh = r_rm8_9w
.param dw = 0  
.param pvc1 = 0   pvc2 = 0   ptc1 = 3.37E-03   ptc2 = 3.37E-07   
.param tfac='1.0+ptc1*(pt-25.0)+ptc2*(pt-25.0)*(pt-25.0)'
.param pt='temper'
r1 n1 n2 'rsh*l*scale/(w*scale-dw)*(1+pvc1*(abs(v(n2,n1))/l/scale)+pvc2*(v(n2,n1)/l/scale)*(v(n2,n1)/l/scale))*tfac'
.ends rm8_9w

.ENDL RES
